@<TRIPOS>MOLECULE
MOL
  198   191     1     0     0
SMALL
resp


@<TRIPOS>ATOM
      1 C1         -4.0650    4.7860    3.6920 c3        1 MOL     -0.461545
      2 C2         -5.2100    3.7630    3.4560 c         1 MOL      0.715873
      3 O1         -5.2910    2.7130    4.0190 o         1 MOL     -0.599425
      4 H1         -4.3880    5.5300    4.4200 hc        1 MOL      0.122536
      5 H2         -3.1850    4.2670    4.0700 hc        1 MOL      0.122536
      6 H3         -3.8200    5.2820    2.7530 hc        1 MOL      0.122536
      7 N1         -6.1920    4.1300    2.6500 n         1 MOL     -0.461554
      8 C3         -7.4340    3.3260    2.4630 c3        1 MOL      0.101279
      9 C4         -7.3940    2.2510    1.3320 c         1 MOL      0.338921
     10 O2         -6.9410    2.5320    0.2300 o         1 MOL     -0.546554
     11 C5         -8.7150    4.2340    2.3210 c3        1 MOL     -0.349511
     12 C6         -8.6590    5.3950    1.2970 c         1 MOL      0.720000
     13 O3         -8.4080    6.6120    1.5790 o         1 MOL     -0.684153
     14 O4         -8.7760    4.9970    0.1180 o         1 MOL     -0.684153
     15 H4         -6.1500    4.9990    2.1470 hn        1 MOL      0.274953
     16 H5         -7.5780    2.7250    3.3600 h1        1 MOL      0.073607
     17 H6         -8.9840    4.6640    3.2770 hc        1 MOL      0.093638
     18 H7         -9.4730    3.5120    2.0110 hc        1 MOL      0.093638
     19 N2         -7.8430    1.0320    1.6380 n         1 MOL     -0.125615
     20 C7         -7.6880   -0.1740    0.8490 c3        1 MOL      0.026736
     21 C8         -8.9710   -0.4310    0.0810 c         1 MOL      0.281221
     22 O5         -9.9990    0.0400    0.4930 o         1 MOL     -0.491092
     23 C9         -7.4600   -1.3550    1.7750 c3        1 MOL     -0.051344
     24 C10        -6.0810   -1.3380    2.3900 c3        1 MOL      0.178924
     25 C11        -5.8300   -2.4600    3.3650 c3        1 MOL     -0.100533
     26 C12        -4.4060   -2.3730    3.8460 c3        1 MOL      0.150839
     27 N3         -3.8100   -3.6820    4.2690 n4        1 MOL     -0.592521
     28 H8         -8.4040    1.0220    2.4740 hn        1 MOL      0.197440
     29 H9         -6.8820   -0.1250    0.1230 h1        1 MOL      0.036163
     30 H10        -7.6450   -2.3350    1.3350 hc        1 MOL      0.031827
     31 H11        -8.1440   -1.2990    2.6210 hc        1 MOL      0.031827
     32 H12        -6.0900   -0.3790    2.9150 hc        1 MOL     -0.051839
     33 H13        -5.2900   -1.3650    1.6400 hc        1 MOL     -0.051839
     34 H14        -6.0560   -3.4350    2.9310 hc        1 MOL      0.021365
     35 H15        -6.3610   -2.3400    4.3080 hc        1 MOL      0.021365
     36 H16        -4.3020   -1.6490    4.6670 hx        1 MOL      0.091691
     37 H17        -3.7040   -1.8520    3.2000 hx        1 MOL      0.091691
     38 H18        -2.8720   -3.6210    4.6320 hn        1 MOL      0.366665
     39 H19        -4.4160   -4.1570    4.9320 hn        1 MOL      0.366665
     40 H20        -3.8220   -4.3000    3.4700 hn        1 MOL      0.366665
     41 N4         -8.9340   -1.0620   -1.1170 n         1 MOL     -0.061277
     42 C13       -10.0810   -1.1150   -2.0800 c3        1 MOL      0.404477
     43 C14       -10.3760   -2.4870   -2.7040 c         1 MOL      0.319674
     44 O6        -10.6940   -2.5660   -3.9110 o         1 MOL     -0.514707
     45 C15        -9.9980    0.0340   -3.0630 c3        1 MOL     -0.321304
     46 C16        -9.1680    1.2350   -2.5660 c         1 MOL      0.995278
     47 O7         -7.9440    1.3060   -2.8930 o         1 MOL     -0.850834
     48 O8         -9.7610    2.1530   -2.0560 o         1 MOL     -0.850834
     49 H21        -8.0740   -1.4740   -1.4470 hn        1 MOL      0.074909
     50 H22       -10.9570   -0.9420   -1.4480 h1        1 MOL     -0.014979
     51 H23       -10.9560    0.4550   -3.3550 hc        1 MOL      0.051075
     52 H24        -9.4920   -0.3270   -3.9550 hc        1 MOL      0.051075
     53 N5        -10.3950   -3.5850   -1.9340 n         1 MOL     -0.302783
     54 C17       -10.2430   -3.7540   -0.4430 c3        1 MOL     -0.347633
     55 C18        -8.8860   -4.2840    0.0370 c         1 MOL      0.684200
     56 O9         -8.7200   -4.4270    1.2740 o         1 MOL     -0.620664
     57 H25       -10.7200   -4.4350   -2.3630 hn        1 MOL      0.289695
     58 H26       -10.9700   -4.5480   -0.2850 h1        1 MOL      0.147535
     59 H27       -10.5410   -2.8510    0.0980 h1        1 MOL      0.147535
     60 N6         -7.9040   -4.3830   -0.8420 n         1 MOL     -0.435012
     61 C19        -6.5860   -4.5770   -0.3190 c3        1 MOL      0.081015
     62 C20        -5.7220   -3.4150   -0.5100 c         1 MOL      0.389183
     63 O10        -6.0920   -2.3520   -0.9860 o         1 MOL     -0.439037
     64 C21        -5.9930   -5.8860   -0.8800 c3        1 MOL     -0.265925
     65 C22        -6.2960   -6.1230   -2.3430 c         1 MOL      0.711640
     66 O11        -6.9360   -7.1090   -2.7540 o         1 MOL     -0.678639
     67 O12        -5.7960   -5.2940   -3.1740 o         1 MOL     -0.678639
     68 H28        -8.0340   -3.9960   -1.7680 hn        1 MOL      0.296024
     69 H29        -6.5990   -4.7690    0.7580 h1        1 MOL      0.093113
     70 H30        -6.3990   -6.6960   -0.2700 hc        1 MOL      0.044573
     71 H31        -4.9100   -5.9160   -0.7310 hc        1 MOL      0.044573
     72 N7         -4.4980   -3.4720    0.0060 n         1 MOL     -0.120840
     73 C23        -3.4450   -2.5310   -0.4040 c3        1 MOL     -0.341934
     74 C24        -2.3340   -2.4970    0.5790 c         1 MOL      0.835209
     75 O13        -2.0130   -3.5340    1.1150 o         1 MOL     -0.607598
     76 H32        -4.2540   -4.2290    0.6300 hn        1 MOL      0.139068
     77 H33        -3.8640   -1.5440   -0.5460 h1        1 MOL      0.135962
     78 H34        -2.9760   -2.8490   -1.3370 h1        1 MOL      0.135962
     79 N8         -1.7780   -1.3330    0.8690 n         1 MOL     -0.723896
     80 C25        -0.5550   -1.2060    1.7180 c3        1 MOL      0.094754
     81 C26         0.5940   -0.4530    1.0460 c         1 MOL      0.676519
     82 O14         0.4240    0.0730   -0.0960 o         1 MOL     -0.525165
     83 C27        -0.8830   -0.4610    3.0080 c3        1 MOL      0.264487
     84 C28        -1.4920    0.9510    2.9250 c3        1 MOL     -0.405105
     85 O15        -1.8560   -1.2280    3.7390 oh        1 MOL     -0.561529
     86 H35        -2.1610   -0.4870    0.4680 hn        1 MOL      0.370476
     87 H36        -0.1410   -2.1890    1.9520 h1        1 MOL      0.051759
     88 H37         0.0470   -0.3820    3.5560 h1        1 MOL      0.030080
     89 H38        -1.4610   -2.0830    3.9110 ho        1 MOL      0.310304
     90 H39        -2.5770    0.8670    2.8380 hc        1 MOL      0.120454
     91 H40        -1.2390    1.5190    3.8130 hc        1 MOL      0.120454
     92 H41        -0.9860    1.3000    2.0180 hc        1 MOL      0.120454
     93 N9          1.7790   -0.4320    1.6640 n         1 MOL     -0.613694
     94 C29         2.8680    0.4980    1.2910 c3        1 MOL     -0.020499
     95 C30         3.8850   -0.0930    0.3780 c         1 MOL      0.535340
     96 O16         4.3480    0.6320   -0.4750 o         1 MOL     -0.535914
     97 C31         3.5860    0.9970    2.5930 c3        1 MOL      0.175968
     98 C32         2.6040    1.9120    3.3930 c3        1 MOL     -0.160341
     99 C33         4.8430    1.7800    2.2260 c3        1 MOL     -0.308988
    100 C34         2.9130    2.3930    4.8130 c3        1 MOL     -0.077521
    101 H42         1.8990   -0.9030    2.5520 hn        1 MOL      0.289092
    102 H43         2.4140    1.3500    0.7980 h1        1 MOL      0.112500
    103 H44         3.9090    0.2340    3.3050 hc        1 MOL     -0.000344
    104 H45         1.7210    1.2940    3.4920 hc        1 MOL      0.056367
    105 H46         2.4220    2.8260    2.8160 hc        1 MOL      0.056367
    106 H47         5.6330    1.1000    1.8940 hc        1 MOL      0.095772
    107 H48         4.5370    2.5320    1.5050 hc        1 MOL      0.095772
    108 H49         5.2540    2.2760    3.1100 hc        1 MOL      0.095772
    109 H50         2.1870    3.1900    4.9710 hc        1 MOL      0.034223
    110 H51         2.8030    1.6270    5.5790 hc        1 MOL      0.034223
    111 H52         3.8630    2.9140    4.9620 hc        1 MOL      0.034223
    112 N10         4.3250   -1.3340    0.6050 n         1 MOL     -0.332488
    113 C35         5.2680   -2.0470   -0.2630 c3        1 MOL     -0.137282
    114 C36         6.3960   -2.6080    0.6560 c         1 MOL      0.496514
    115 O17         6.1550   -2.8680    1.8210 o         1 MOL     -0.513385
    116 C37         4.5840   -3.2100   -1.0650 c3        1 MOL      0.320023
    117 C38         3.5880   -2.5780   -2.0660 c3        1 MOL     -0.259617
    118 O18         5.5480   -3.8980   -1.8590 oh        1 MOL     -0.591431
    119 H53         3.9230   -1.8660    1.3700 hn        1 MOL      0.233520
    120 H54         5.6850   -1.3760   -1.0120 h1        1 MOL      0.157312
    121 H55         3.9340   -3.8530   -0.4590 h1        1 MOL      0.009845
    122 H56         5.2540   -4.8120   -1.9730 ho        1 MOL      0.389899
    123 H57         3.4830   -3.1390   -2.9900 hc        1 MOL      0.079628
    124 H58         2.6250   -2.4940   -1.5530 hc        1 MOL      0.079628
    125 H59         3.9950   -1.6120   -2.3620 hc        1 MOL      0.079628
    126 N11         7.6530   -2.7270    0.2250 n         1 MOL     -0.395013
    127 C39         8.8230   -3.2490    0.9050 c3        1 MOL     -0.099076
    128 C40         9.8930   -2.2220    1.1180 c         1 MOL      0.702280
    129 O19        10.4190   -2.1000    2.2730 o         1 MOL     -0.584802
    130 C41         9.4340   -4.3970    0.1330 c3        1 MOL      0.314576
    131 C42         9.7570   -4.3290   -1.3780 c3        1 MOL     -0.159549
    132 O20         8.6090   -5.4940    0.2790 oh        1 MOL     -0.621270
    133 H60         7.7390   -2.3850   -0.7230 hn        1 MOL      0.275511
    134 H61         8.4960   -3.5090    1.9160 h1        1 MOL      0.108802
    135 H62        10.3050   -4.6380    0.7370 h1        1 MOL     -0.016078
    136 H63         8.3070   -5.5010    1.1870 ho        1 MOL      0.408572
    137 H64         8.8400   -4.0640   -1.9130 hc        1 MOL      0.061492
    138 H65        10.5670   -3.6460   -1.6080 hc        1 MOL      0.061492
    139 H66        10.1340   -5.3000   -1.7240 hc        1 MOL      0.061492
    140 N12        10.3660   -1.4950    0.0830 n         1 MOL     -0.651440
    141 C43        11.5870   -0.6530    0.1890 c3        1 MOL      0.124359
    142 C44        11.4900    0.4620   -0.8060 c         1 MOL      0.641330
    143 O21        10.9130    0.2780   -1.8670 o         1 MOL     -0.551137
    144 C45        12.8170   -1.5080   -0.2880 c3        1 MOL     -0.232579
    145 C46        14.1040   -0.6840   -0.5130 c3        1 MOL      0.040775
    146 C47        15.4290   -1.4810   -0.7710 c3        1 MOL     -0.014079
    147 C48        15.3810   -2.5380   -1.8290 c3        1 MOL      0.086897
    148 N13        16.7200   -3.1590   -2.0500 n4        1 MOL     -0.221557
    149 H67         9.8890   -1.5490   -0.8090 hn        1 MOL      0.317020
    150 H68        11.7210   -0.2100    1.1730 h1        1 MOL      0.107642
    151 H69        12.5190   -2.0700   -1.1780 hc        1 MOL      0.054729
    152 H70        12.8710   -2.2500    0.5050 hc        1 MOL      0.054729
    153 H71        14.1800   -0.0850    0.3890 hc        1 MOL      0.042438
    154 H72        14.0050    0.0120   -1.3540 hc        1 MOL      0.042438
    155 H73        15.7780   -1.8730    0.1860 hc        1 MOL      0.019288
    156 H74        16.1860   -0.7280   -1.0070 hc        1 MOL      0.019288
    157 H75        14.8820   -2.2630   -2.7650 hx        1 MOL      0.059297
    158 H76        14.6830   -3.2950   -1.4520 hx        1 MOL      0.059297
    159 H77        17.1760   -3.1850   -1.1460 hn        1 MOL      0.226034
    160 H78        16.5910   -4.1090   -2.3620 hn        1 MOL      0.226034
    161 H79        17.3200   -2.6850   -2.7000 hn        1 MOL      0.226034
    162 N14        11.8370    1.6730   -0.3980 n         1 MOL     -0.660778
    163 C49        11.6710    2.8630   -1.2570 c3        1 MOL      0.303808
    164 C50        10.1560    3.3280   -1.2790 c         1 MOL      0.452165
    165 O22         9.6180    3.4940   -2.3700 o         1 MOL     -0.532188
    166 C51        12.6620    3.9370   -0.7470 c3        1 MOL     -0.011266
    167 C52        12.7040    5.0600   -1.7740 c3        1 MOL     -0.205607
    168 C53        13.8870    5.9900   -1.5650 c         1 MOL      0.706357
    169 O23        14.8630    5.7960   -2.2650 o         1 MOL     -0.651571
    170 O24        13.9900    6.8260   -0.6280 o         1 MOL     -0.651571
    171 H80        12.2300    1.7220    0.5280 hn        1 MOL      0.278940
    172 H81        11.9000    2.5100   -2.2670 h1        1 MOL      0.039431
    173 H82        13.6590    3.5170   -0.6470 hc        1 MOL      0.020114
    174 H83        12.2460    4.3640    0.1690 hc        1 MOL      0.020114
    175 H84        11.7880    5.6360   -1.7800 hc        1 MOL      0.034791
    176 H85        12.6900    4.6260   -2.7820 hc        1 MOL      0.034791
    177 N15         9.4580    3.5270   -0.1490 n         1 MOL     -0.395947
    178 C54         9.9450    3.7540    1.2360 c3        1 MOL      0.007348
    179 H86         9.6000    4.7270    1.5870 h1        1 MOL      0.047054
    180 H87         9.5580    2.9740    1.8900 h1        1 MOL      0.047054
    181 H88        11.0350    3.7300    1.2470 h1        1 MOL      0.047054
    182 H89         8.5530    3.8990   -0.3860 hn        1 MOL      0.288370
    183 Ca1        -7.7110    3.9580   -1.9650 Ca        1 MOL      1.763027
    184 O25        -8.5280    3.5960   -4.6310 oh        1 MOL     -0.817747
    185 H90        -8.6690    4.3680   -5.1940 ho        1 MOL      0.404977
    186 H91        -8.5100    2.8570   -5.2400 ho        1 MOL      0.404977
    187 O26        -6.0080    5.3320   -3.9300 oh        1 MOL     -0.817747
    188 H92        -5.5490    6.0260   -4.4020 ho        1 MOL      0.404977
    189 H93        -5.8530    4.5450   -4.4390 ho        1 MOL      0.404977
    190 O27        -5.8930    5.4850   -1.0720 oh        1 MOL     -0.817747
    191 H94        -5.0140    5.3890   -0.7010 ho        1 MOL      0.404977
    192 H95        -5.9830    6.4190   -1.2280 ho        1 MOL      0.404977
    193 O28        -5.2290    2.8320   -2.5540 oh        1 MOL     -0.817747
    194 H96        -4.3210    2.9950   -2.8180 ho        1 MOL      0.404977
    195 H97        -5.3620    1.8910   -2.6960 ho        1 MOL      0.404977
    196 O29        -8.9200    6.2970   -2.5620 oh        1 MOL     -0.817747
    197 H98        -9.7890    6.6660   -2.4280 ho        1 MOL      0.404977
    198 H99        -8.4280    6.9820   -3.0050 ho        1 MOL      0.404977
@<TRIPOS>BOND
     1    1    2 1   
     2    1    4 1   
     3    1    5 1   
     4    1    6 1   
     5    2    3 2   
     6    2    7 1   
     7    7    8 1   
     8    7   15 1   
     9    8    9 1   
    10    8   11 1   
    11    8   16 1   
    12    9   10 2   
    13    9   19 1   
    14   11   12 1   
    15   11   17 1   
    16   11   18 1   
    17   12   13 1   
    18   12   14 1   
    19   19   20 1   
    20   19   28 1   
    21   20   21 1   
    22   20   23 1   
    23   20   29 1   
    24   21   22 2   
    25   21   41 1   
    26   23   24 1   
    27   23   30 1   
    28   23   31 1   
    29   24   25 1   
    30   24   32 1   
    31   24   33 1   
    32   25   26 1   
    33   25   34 1   
    34   25   35 1   
    35   26   27 1   
    36   26   36 1   
    37   26   37 1   
    38   27   38 1   
    39   27   39 1   
    40   27   40 1   
    41   41   42 1   
    42   41   49 1   
    43   42   43 1   
    44   42   45 1   
    45   42   50 1   
    46   43   44 2   
    47   43   53 1   
    48   45   46 1   
    49   45   51 1   
    50   45   52 1   
    51   46   47 1   
    52   46   48 1   
    53   53   54 1   
    54   53   57 1   
    55   54   55 1   
    56   54   58 1   
    57   54   59 1   
    58   55   56 2   
    59   55   60 1   
    60   60   61 1   
    61   60   68 1   
    62   61   62 1   
    63   61   64 1   
    64   61   69 1   
    65   62   63 2   
    66   62   72 1   
    67   64   65 1   
    68   64   70 1   
    69   64   71 1   
    70   65   66 1   
    71   65   67 1   
    72   72   73 1   
    73   72   76 1   
    74   73   74 1   
    75   73   77 1   
    76   73   78 1   
    77   74   75 2   
    78   74   79 1   
    79   79   80 1   
    80   79   86 1   
    81   80   81 1   
    82   80   83 1   
    83   80   87 1   
    84   81   82 2   
    85   81   93 1   
    86   83   84 1   
    87   83   85 1   
    88   83   88 1   
    89   84   90 1   
    90   84   91 1   
    91   84   92 1   
    92   85   89 1   
    93   93   94 1   
    94   93  101 1   
    95   94   95 1   
    96   94   97 1   
    97   94  102 1   
    98   95   96 2   
    99   95  112 1   
   100   97   98 1   
   101   97   99 1   
   102   97  103 1   
   103   98  100 1   
   104   98  104 1   
   105   98  105 1   
   106   99  106 1   
   107   99  107 1   
   108   99  108 1   
   109  100  109 1   
   110  100  110 1   
   111  100  111 1   
   112  112  113 1   
   113  112  119 1   
   114  113  114 1   
   115  113  116 1   
   116  113  120 1   
   117  114  115 2   
   118  114  126 1   
   119  116  117 1   
   120  116  118 1   
   121  116  121 1   
   122  117  123 1   
   123  117  124 1   
   124  117  125 1   
   125  118  122 1   
   126  126  127 1   
   127  126  133 1   
   128  127  128 1   
   129  127  130 1   
   130  127  134 1   
   131  128  129 2   
   132  128  140 1   
   133  130  131 1   
   134  130  132 1   
   135  130  135 1   
   136  131  137 1   
   137  131  138 1   
   138  131  139 1   
   139  132  136 1   
   140  140  141 1   
   141  140  149 1   
   142  141  142 1   
   143  141  144 1   
   144  141  150 1   
   145  142  143 2   
   146  142  162 1   
   147  144  145 1   
   148  144  151 1   
   149  144  152 1   
   150  145  146 1   
   151  145  153 1   
   152  145  154 1   
   153  146  147 1   
   154  146  155 1   
   155  146  156 1   
   156  147  148 1   
   157  147  157 1   
   158  147  158 1   
   159  148  159 1   
   160  148  160 1   
   161  148  161 1   
   162  162  163 1   
   163  162  171 1   
   164  163  164 1   
   165  163  166 1   
   166  163  172 1   
   167  164  165 2   
   168  164  177 1   
   169  166  167 1   
   170  166  173 1   
   171  166  174 1   
   172  167  168 1   
   173  167  175 1   
   174  167  176 1   
   175  168  169 1   
   176  168  170 1   
   177  177  178 1   
   178  177  182 1   
   179  178  179 1   
   180  178  180 1   
   181  178  181 1   
   182  184  185 1   
   183  184  186 1   
   184  187  188 1   
   185  187  189 1   
   186  190  191 1   
   187  190  192 1   
   188  193  194 1   
   189  193  195 1   
   190  196  197 1   
   191  196  198 1   
@<TRIPOS>SUBSTRUCTURE
     1 MOL         1 TEMP              0 ****  ****    0 ROOT
