@<TRIPOS>MOLECULE
MOL
  185   180     1     0     0
SMALL
resp


@<TRIPOS>ATOM
      1 C1         -5.7610    1.7990   -3.3750 c3        1 MOL     -0.276822
      2 C2         -6.4750    1.6860   -2.0140 c         1 MOL      0.757384
      3 O1         -5.8390    1.3100   -1.0420 o         1 MOL     -0.570935
      4 H1         -5.1960    2.7300   -3.4110 hc        1 MOL      0.061820
      5 H2         -5.0810    0.9570   -3.5000 hc        1 MOL      0.061820
      6 H3         -6.5010    1.7920   -4.1750 hc        1 MOL      0.061820
      7 N1         -7.7800    1.9900   -1.9010 n         1 MOL     -0.791462
      8 C3         -8.5850    1.9270   -0.6750 c3        1 MOL      0.346627
      9 C4         -8.5750    0.6050    0.0970 c         1 MOL      0.551637
     10 O2         -9.2900    0.6090    1.1200 o         1 MOL     -0.547260
     11 C5         -8.2160    3.0680    0.2350 c3        1 MOL     -0.521792
     12 C6         -8.2080    4.4560   -0.4650 c         1 MOL      0.866739
     13 O3         -7.5570    5.3690    0.1020 o         1 MOL     -0.704658
     14 O4         -8.8070    4.7010   -1.5360 o         1 MOL     -0.704658
     15 H4         -8.0470    2.5150   -2.7250 hn        1 MOL      0.383157
     16 H5         -9.6320    2.0680   -0.9620 h1        1 MOL      0.038581
     17 H6         -7.1770    2.8750    0.4960 hc        1 MOL      0.139832
     18 H7         -8.8690    3.0920    1.1060 hc        1 MOL      0.139832
     19 N2         -8.1340   -0.4620   -0.4650 n         1 MOL     -0.661192
     20 C7         -8.0670   -1.8310    0.1700 c3        1 MOL      0.320116
     21 C8         -6.5890   -2.3320    0.2610 c         1 MOL      0.398920
     22 O5         -6.3800   -3.5410    0.3850 o         1 MOL     -0.536322
     23 C9         -9.0810   -2.7330   -0.5660 c3        1 MOL     -0.016104
     24 C10        -9.4670   -4.0940    0.1610 c3        1 MOL     -0.106051
     25 C11       -10.4170   -4.9640   -0.6960 c3        1 MOL      0.089061
     26 C12       -11.7550   -4.3170   -1.0630 c3        1 MOL      0.033716
     27 N3        -12.7760   -5.2890   -1.5760 n4        1 MOL     -0.381145
     28 H8         -7.6110   -0.3840   -1.3220 hn        1 MOL      0.272630
     29 H9         -8.3790   -1.6520    1.2000 h1        1 MOL      0.050960
     30 H10        -8.7390   -3.0080   -1.5670 hc        1 MOL      0.011862
     31 H11       -10.0220   -2.1880   -0.5650 hc        1 MOL      0.011862
     32 H12       -10.0060   -3.8770    1.0770 hc        1 MOL      0.044002
     33 H13        -8.5190   -4.6300    0.2800 hc        1 MOL      0.044002
     34 H14       -10.6100   -5.8830   -0.1490 hc        1 MOL      0.002327
     35 H15        -9.9540   -5.3740   -1.5920 hc        1 MOL      0.002327
     36 H16       -11.4300   -3.5300   -1.7430 hx        1 MOL      0.078499
     37 H17       -12.2170   -3.8690   -0.1800 hx        1 MOL      0.078499
     38 H18       -12.3290   -5.8880   -2.2520 hn        1 MOL      0.315573
     39 H19       -13.1270   -5.8630   -0.8290 hn        1 MOL      0.315573
     40 H20       -13.5150   -4.7670   -2.0300 hn        1 MOL      0.315573
     41 N4         -5.5880   -1.4360    0.1180 n         1 MOL     -0.217375
     42 C13        -4.1500   -1.7370    0.1150 c3        1 MOL     -0.275107
     43 C14        -3.5810   -2.5380    1.3520 c         1 MOL      0.637556
     44 O6         -3.8280   -2.1630    2.4940 o         1 MOL     -0.543406
     45 C15        -3.3830   -0.5530   -0.2810 c3        1 MOL     -0.355805
     46 C16        -1.8650   -0.7750   -0.3590 c         1 MOL      0.700072
     47 O7         -1.3660   -1.5340   -1.1900 o         1 MOL     -0.731217
     48 O8         -1.1150   -0.5130    0.5650 o         1 MOL     -0.731217
     49 H21        -5.8620   -0.4940   -0.1390 hn        1 MOL      0.229999
     50 H22        -3.9620   -2.3650   -0.7530 h1        1 MOL      0.119717
     51 H23        -3.6570    0.3000    0.3440 hc        1 MOL      0.209362
     52 H24        -3.6580   -0.2730   -1.2960 hc        1 MOL      0.209362
     53 N5         -2.8040   -3.5750    1.1430 n         1 MOL     -0.181834
     54 C17        -2.2660   -4.3550    2.1910 c3        1 MOL     -0.239222
     55 C18        -1.3430   -3.6580    3.1300 c         1 MOL      0.638728
     56 O9         -0.9560   -4.2130    4.1510 o         1 MOL     -0.591715
     57 H25        -2.7240   -3.8930    0.1860 hn        1 MOL      0.187616
     58 H26        -1.7700   -5.2790    1.8670 h1        1 MOL      0.109057
     59 H27        -3.1750   -4.6350    2.7190 h1        1 MOL      0.109057
     60 N6         -0.9400   -2.4240    2.8640 n         1 MOL     -0.075825
     61 C19        -0.2950   -1.6480    3.8940 c3        1 MOL     -0.209177
     62 C20        -0.5730   -0.1790    4.0620 c         1 MOL      0.540625
     63 O10        -0.2590    0.4330    5.0940 o         1 MOL     -0.554529
     64 C21         1.2660   -1.8770    3.7640 c3        1 MOL     -0.164239
     65 C22         1.9750   -1.4280    2.5810 c         1 MOL      0.813854
     66 N7          3.2810   -1.6060    2.5290 n         1 MOL     -0.738923
     67 O11         1.5150   -0.7820    1.6680 o         1 MOL     -0.693340
     68 H28        -1.1490   -2.0830    1.9360 hn        1 MOL      0.001453
     69 H29        -0.6160   -2.1130    4.8330 h1        1 MOL      0.156459
     70 H30         1.4390   -2.9500    3.8820 hc        1 MOL      0.065476
     71 H31         1.7640   -1.3970    4.6050 hc        1 MOL      0.065476
     72 H32         3.7090   -2.2300    3.1960 hn        1 MOL      0.315028
     73 H33         3.8160   -1.1930    1.7850 hn        1 MOL      0.315028
     74 N8         -1.3160    0.4610    3.1790 n         1 MOL     -0.236734
     75 C23        -1.7570    1.8610    3.2950 c3        1 MOL     -0.224734
     76 C24        -1.0250    2.8530    2.2770 c         1 MOL      0.614662
     77 O12        -1.2980    4.0460    2.3500 o         1 MOL     -0.544229
     78 H34        -1.6000   -0.0160    2.3290 hn        1 MOL      0.189803
     79 H35        -1.5720    2.1850    4.3100 h1        1 MOL      0.135073
     80 H36        -2.8370    1.8230    3.1300 h1        1 MOL      0.135073
     81 N9         -0.3490    2.3200    1.3110 n         1 MOL     -0.688664
     82 C25         0.0250    3.0610    0.1280 c3        1 MOL      0.278344
     83 C26         1.4310    2.4720   -0.3170 c         1 MOL      0.670079
     84 O13         1.5200    1.2460   -0.3740 o         1 MOL     -0.542068
     85 C27        -1.0270    2.8690   -0.9440 c3        1 MOL     -0.010294
     86 C28        -2.1160    3.9020   -0.8530 ca        1 MOL     -0.112574
     87 C29        -2.0250    5.1550   -1.5110 ca        1 MOL     -0.083674
     88 C30        -3.2460    3.6500   -0.1040 ca        1 MOL     -0.083674
     89 C31        -3.1010    6.0470   -1.4940 ca        1 MOL     -0.267142
     90 C32        -4.3950    4.4470   -0.1480 ca        1 MOL     -0.267142
     91 C33        -4.3500    5.6470   -0.8710 ca        1 MOL      0.429913
     92 O14        -5.4000    6.4490   -0.8360 oh        1 MOL     -0.533291
     93 H37        -0.3350    1.3050    1.3100 hn        1 MOL      0.405541
     94 H38         0.1700    4.1240    0.3380 h1        1 MOL      0.029975
     95 H39        -1.4810    1.8780   -0.8960 hc        1 MOL      0.009505
     96 H40        -0.5170    2.9330   -1.9060 hc        1 MOL      0.009505
     97 H41        -1.1390    5.3180   -2.1040 ha        1 MOL      0.073025
     98 H42        -3.2740    2.7710    0.5370 ha        1 MOL      0.073025
     99 H43        -3.0460    6.9290   -2.1260 ha        1 MOL      0.122754
    100 H44        -5.1720    4.3570    0.6000 ha        1 MOL      0.122754
    101 H45        -5.9670    6.0860   -0.1630 ho        1 MOL      0.415408
    102 N10         2.4040    3.2520   -0.6160 n         1 MOL     -0.674139
    103 C34         3.6380    2.8020   -1.1890 c3        1 MOL     -0.017587
    104 C35         4.6010    2.3240   -0.1280 c         1 MOL      0.587852
    105 O15         5.0110    1.1870   -0.1560 o         1 MOL     -0.517424
    106 C36         4.1550    3.7990   -2.2010 c3        1 MOL      0.141872
    107 C37         3.2010    4.0520   -3.4210 c3        1 MOL      0.078636
    108 C38         5.5260    3.3460   -2.6520 c3        1 MOL     -0.389679
    109 C39         2.9300    2.7820   -4.3330 c3        1 MOL     -0.206725
    110 H46         2.3030    4.2490   -0.5800 hn        1 MOL      0.317573
    111 H47         3.4990    1.9090   -1.7930 h1        1 MOL      0.044953
    112 H48         4.3330    4.7670   -1.7430 hc        1 MOL     -0.010966
    113 H49         3.6580    4.8690   -3.9770 hc        1 MOL     -0.004762
    114 H50         2.2010    4.4170   -3.1480 hc        1 MOL     -0.004762
    115 H51         6.2900    3.5360   -1.9070 hc        1 MOL      0.105751
    116 H52         5.4940    2.2850   -2.8810 hc        1 MOL      0.105751
    117 H53         5.7700    3.8490   -3.5790 hc        1 MOL      0.105751
    118 H54         2.1890    2.2080   -3.7620 hc        1 MOL      0.064377
    119 H55         2.3530    2.9920   -5.2300 hc        1 MOL      0.064377
    120 H56         3.8090    2.1690   -4.5370 hc        1 MOL      0.064377
    121 N11         4.9390    3.1880    0.8660 n         1 MOL     -0.238929
    122 C40         5.6530    2.8790    2.1590 c3        1 MOL     -0.233195
    123 C41         7.0580    2.3620    1.9220 c         1 MOL      0.370690
    124 O16         7.7320    1.8920    2.8370 o         1 MOL     -0.503137
    125 C42         5.7860    4.0920    3.0510 c3        1 MOL      0.240674
    126 O17         4.5220    4.6780    3.1550 oh        1 MOL     -0.617702
    127 H57         4.4020    4.0480    0.8510 hn        1 MOL      0.263863
    128 H58         5.0800    2.1160    2.6810 h1        1 MOL      0.162676
    129 H59         6.5180    4.7880    2.6510 h1        1 MOL      0.053524
    130 H60         6.1600    3.9030    4.0590 h1        1 MOL      0.053524
    131 H61         4.1130    4.3740    3.9760 ho        1 MOL      0.420122
    132 N12         7.6120    2.5640    0.7200 n         1 MOL     -0.116369
    133 C43         8.8770    2.0810    0.2360 c3        1 MOL      0.198495
    134 C44         9.1070    0.6210    0.4000 c         1 MOL      0.584945
    135 O18        10.2140    0.1880    0.7330 o         1 MOL     -0.543315
    136 C45         9.9860    2.9550    0.8680 c3        1 MOL     -0.351252
    137 H62         7.0320    3.1690    0.1420 hn        1 MOL      0.087603
    138 H63         8.8420    2.2510   -0.8420 h1        1 MOL      0.031778
    139 H64         9.9890    2.7870    1.9490 hc        1 MOL      0.094570
    140 H65        10.9500    2.7360    0.4010 hc        1 MOL      0.094570
    141 H66         9.7380    3.9900    0.6370 hc        1 MOL      0.094570
    142 N13         8.1130   -0.2580    0.1300 n         1 MOL     -0.748895
    143 C46         8.1020   -1.7280    0.3750 c3        1 MOL      0.711214
    144 C47         7.0650   -2.3740   -0.5410 c         1 MOL      0.268110
    145 O19         6.2490   -1.6600   -1.1500 o         1 MOL     -0.444294
    146 C48         7.8150   -2.0460    1.8710 c3        1 MOL     -0.304881
    147 H67         7.2090    0.1920    0.0430 hn        1 MOL      0.227431
    148 H68         9.0520   -2.2200    0.1900 h1        1 MOL     -0.071175
    149 H69         7.5020   -3.0930    1.8830 hc        1 MOL      0.078785
    150 H70         8.7160   -1.9190    2.4700 hc        1 MOL      0.078785
    151 H71         6.9310   -1.5370    2.2610 hc        1 MOL      0.078785
    152 N14         7.2080   -3.6520   -0.8700 n         1 MOL     -0.343017
    153 C49         6.5400   -4.4380   -1.8990 c3        1 MOL     -0.107226
    154 C50         7.1140   -3.9130   -3.3330 c         1 MOL      0.421290
    155 O20         6.4160   -4.0940   -4.2960 o         1 MOL     -0.493153
    156 C51         5.0110   -4.3920   -1.7800 c3        1 MOL      0.042211
    157 C52         4.5220   -4.8320   -0.4360 c3        1 MOL      0.045266
    158 C53         3.0820   -4.4030   -0.1180 c         1 MOL      0.538870
    159 O21         2.7390   -3.2430   -0.3590 o         1 MOL     -0.656267
    160 O22         2.2710   -5.2580    0.3380 o         1 MOL     -0.656267
    161 H72         7.8500   -4.1790   -0.2780 hn        1 MOL      0.239843
    162 H73         6.7440   -5.5050   -1.7630 h1        1 MOL      0.104610
    163 H74         4.6130   -5.1260   -2.4900 hc        1 MOL      0.036054
    164 H75         4.6900   -3.3810   -1.9920 hc        1 MOL      0.036054
    165 H76         5.1590   -4.4090    0.3360 hc        1 MOL     -0.024924
    166 H77         4.6670   -5.9090   -0.3620 hc        1 MOL     -0.024924
    167 N15         8.2940   -3.3240   -3.3750 n         1 MOL     -0.288778
    168 C54         8.6400   -2.3910   -4.4600 c3        1 MOL     -0.047008
    169 H78         8.9680   -1.4430   -4.0320 h1        1 MOL      0.068722
    170 H79         9.4440   -2.8140   -5.0620 h1        1 MOL      0.068722
    171 H80         7.7650   -2.2230   -5.0880 h1        1 MOL      0.068722
    172 H81         8.8930   -3.4280   -2.5700 hn        1 MOL      0.223250
    173 Ca1         1.1440   -1.4140   -0.7950 Ca        1 MOL      1.826476
    174 O23         3.6040   -0.7680   -1.4400 oh        1 MOL     -0.891444
    175 H82         4.1740    0.0020   -1.3870 ho        1 MOL      0.424111
    176 H83         4.1890   -1.5100   -1.3260 ho        1 MOL      0.424111
    177 O24         0.1670    0.3400   -2.9110 oh        1 MOL     -0.891444
    178 H84        -0.0190   -0.2460   -3.6420 ho        1 MOL      0.424111
    179 H85        -0.0900    1.2070   -3.2320 ho        1 MOL      0.424111
    180 O25         1.2730   -3.0490   -3.1190 oh        1 MOL     -0.891444
    181 H86         0.4610   -3.3390   -3.5440 ho        1 MOL      0.424111
    182 H87         1.8990   -3.7620   -3.2870 ho        1 MOL      0.424111
    183 O26         0.0210   -3.9330    0.0990 oh        1 MOL     -0.891444
    184 H88         0.8670   -4.3360   -0.0790 ho        1 MOL      0.424111
    185 H89        -0.6190   -4.5430   -0.2640 ho        1 MOL      0.424111
@<TRIPOS>BOND
     1    1    2 1   
     2    1    4 1   
     3    1    5 1   
     4    1    6 1   
     5    2    3 2   
     6    2    7 1   
     7    7    8 1   
     8    7   15 1   
     9    8    9 1   
    10    8   11 1   
    11    8   16 1   
    12    9   10 2   
    13    9   19 1   
    14   11   12 1   
    15   11   17 1   
    16   11   18 1   
    17   12   13 1   
    18   12   14 1   
    19   19   20 1   
    20   19   28 1   
    21   20   21 1   
    22   20   23 1   
    23   20   29 1   
    24   21   22 2   
    25   21   41 1   
    26   23   24 1   
    27   23   30 1   
    28   23   31 1   
    29   24   25 1   
    30   24   32 1   
    31   24   33 1   
    32   25   26 1   
    33   25   34 1   
    34   25   35 1   
    35   26   27 1   
    36   26   36 1   
    37   26   37 1   
    38   27   38 1   
    39   27   39 1   
    40   27   40 1   
    41   41   42 1   
    42   41   49 1   
    43   42   43 1   
    44   42   45 1   
    45   42   50 1   
    46   43   44 2   
    47   43   53 1   
    48   45   46 1   
    49   45   51 1   
    50   45   52 1   
    51   46   47 1   
    52   46   48 1   
    53   53   54 1   
    54   53   57 1   
    55   54   55 1   
    56   54   58 1   
    57   54   59 1   
    58   55   56 2   
    59   55   60 1   
    60   60   61 1   
    61   60   68 1   
    62   61   62 1   
    63   61   64 1   
    64   61   69 1   
    65   62   63 2   
    66   62   74 1   
    67   64   65 1   
    68   64   70 1   
    69   64   71 1   
    70   65   66 1   
    71   65   67 2   
    72   66   72 1   
    73   66   73 1   
    74   74   75 1   
    75   74   78 1   
    76   75   76 1   
    77   75   79 1   
    78   75   80 1   
    79   76   77 2   
    80   76   81 1   
    81   81   82 1   
    82   81   93 1   
    83   82   83 1   
    84   82   85 1   
    85   82   94 1   
    86   83   84 2   
    87   83  102 1   
    88   85   86 1   
    89   85   95 1   
    90   85   96 1   
    91   86   87 ar  
    92   86   88 ar  
    93   87   89 ar  
    94   87   97 1   
    95   88   90 ar  
    96   88   98 1   
    97   89   91 ar  
    98   89   99 1   
    99   90   91 ar  
   100   90  100 1   
   101   91   92 1   
   102   92  101 1   
   103  102  103 1   
   104  102  110 1   
   105  103  104 1   
   106  103  106 1   
   107  103  111 1   
   108  104  105 2   
   109  104  121 1   
   110  106  107 1   
   111  106  108 1   
   112  106  112 1   
   113  107  109 1   
   114  107  113 1   
   115  107  114 1   
   116  108  115 1   
   117  108  116 1   
   118  108  117 1   
   119  109  118 1   
   120  109  119 1   
   121  109  120 1   
   122  121  122 1   
   123  121  127 1   
   124  122  123 1   
   125  122  125 1   
   126  122  128 1   
   127  123  124 2   
   128  123  132 1   
   129  125  126 1   
   130  125  129 1   
   131  125  130 1   
   132  126  131 1   
   133  132  133 1   
   134  132  137 1   
   135  133  134 1   
   136  133  136 1   
   137  133  138 1   
   138  134  135 2   
   139  134  142 1   
   140  136  139 1   
   141  136  140 1   
   142  136  141 1   
   143  142  143 1   
   144  142  147 1   
   145  143  144 1   
   146  143  146 1   
   147  143  148 1   
   148  144  145 2   
   149  144  152 1   
   150  146  149 1   
   151  146  150 1   
   152  146  151 1   
   153  152  153 1   
   154  152  161 1   
   155  153  154 1   
   156  153  156 1   
   157  153  162 1   
   158  154  155 2   
   159  154  167 1   
   160  156  157 1   
   161  156  163 1   
   162  156  164 1   
   163  157  158 1   
   164  157  165 1   
   165  157  166 1   
   166  158  159 1   
   167  158  160 1   
   168  167  168 1   
   169  167  172 1   
   170  168  169 1   
   171  168  170 1   
   172  168  171 1   
   173  174  175 1   
   174  174  176 1   
   175  177  178 1   
   176  177  179 1   
   177  180  181 1   
   178  180  182 1   
   179  183  184 1   
   180  183  185 1   
@<TRIPOS>SUBSTRUCTURE
     1 MOL         1 TEMP              0 ****  ****    0 ROOT
