@<TRIPOS>MOLECULE
MOL
  178   175     1     0     0
SMALL
resp


@<TRIPOS>ATOM
      1 C1          3.1130   -1.0790    4.6880 c3        1 MOL     -0.391583
      2 C2          4.0850   -0.1700    4.0100 c         1 MOL      0.581618
      3 O1          3.6670    0.7620    3.3380 o         1 MOL     -0.572642
      4 H1          2.1260   -0.6160    4.6940 hc        1 MOL      0.097072
      5 H2          3.0650   -2.0270    4.1510 hc        1 MOL      0.097072
      6 H3          3.4370   -1.2590    5.7140 hc        1 MOL      0.097072
      7 N1          5.3450   -0.3180    4.3450 n         1 MOL     -0.332011
      8 C3          6.4910    0.3110    3.7280 c3        1 MOL     -0.056108
      9 C4          6.9200   -0.2640    2.3340 c         1 MOL      0.401782
     10 O2          7.7590    0.2970    1.6400 o         1 MOL     -0.447309
     11 C5          7.6670    0.3860    4.7620 c3        1 MOL     -0.064022
     12 C6          8.1120   -0.9690    5.3380 c         1 MOL      0.703471
     13 O3          7.3530   -1.9760    5.3680 o         1 MOL     -0.717694
     14 O4          9.2480   -0.9200    5.8540 o         1 MOL     -0.717694
     15 H4          5.5720   -1.0200    5.0310 hn        1 MOL      0.227802
     16 H5          6.1700    1.3390    3.5530 h1        1 MOL      0.083103
     17 H6          7.2200    0.9920    5.5420 hc        1 MOL      0.009463
     18 H7          8.4600    1.0470    4.3870 hc        1 MOL      0.009463
     19 N2          6.3570   -1.4350    1.9220 n         1 MOL     -0.337992
     20 C7          6.2800   -1.9090    0.5060 c3        1 MOL      0.065087
     21 C8          5.5490   -0.9030   -0.4900 c         1 MOL      0.624254
     22 O5          4.4840   -1.2490   -0.9960 o         1 MOL     -0.652366
     23 C9          7.6540   -2.4140    0.0160 c3        1 MOL     -0.191848
     24 H8          5.7510   -1.8920    2.5950 hn        1 MOL      0.231373
     25 H9          5.7020   -2.8270    0.5680 h1        1 MOL      0.108114
     26 H10         8.0900   -3.0410    0.7990 hc        1 MOL      0.053255
     27 H11         7.4960   -3.0270   -0.8760 hc        1 MOL      0.053255
     28 H12         8.3230   -1.5990   -0.2400 hc        1 MOL      0.053255
     29 N3          6.2110    0.2290   -0.8440 n         1 MOL     -0.440117
     30 C10         5.8830    0.9830   -2.0330 c3        1 MOL      0.301849
     31 C11         5.3250    2.4280   -1.7880 c         1 MOL      0.575720
     32 O6          5.2410    3.1970   -2.7730 o         1 MOL     -0.564534
     33 C12         7.0970    0.9140   -2.9770 c3        1 MOL     -0.521199
     34 C13         8.3280    1.5500   -2.4270 c         1 MOL      0.850812
     35 O7          9.4400    1.4700   -3.0380 o         1 MOL     -0.733111
     36 O8          8.2810    2.2420   -1.3600 o         1 MOL     -0.733111
     37 H13         7.1090    0.3590   -0.4120 hn        1 MOL      0.257663
     38 H14         5.0040    0.5070   -2.4690 h1        1 MOL     -0.021933
     39 H15         6.8480    1.4100   -3.9140 hc        1 MOL      0.071693
     40 H16         7.2400   -0.0810   -3.3850 hc        1 MOL      0.071693
     41 N4          4.8750    2.6860   -0.5690 n         1 MOL     -0.375943
     42 C14         4.2710    4.0580   -0.2130 c3        1 MOL      0.044919
     43 C15         3.1060    4.5620   -0.9560 c         1 MOL      0.526285
     44 O9          3.1290    5.7250   -1.3900 o         1 MOL     -0.572923
     45 H17         4.7760    1.9040    0.0690 hn        1 MOL      0.231310
     46 H18         5.0470    4.8110   -0.0780 h1        1 MOL      0.063424
     47 H19         3.8430    3.8740    0.7770 h1        1 MOL      0.063424
     48 N5          2.1180    3.7570   -1.1830 n         1 MOL     -0.425075
     49 C16         0.9280    4.1090   -1.9620 c3        1 MOL     -0.002226
     50 C17        -0.0610    4.9780   -1.1860 c         1 MOL      0.652015
     51 O10        -0.1060    5.0980    0.0270 o         1 MOL     -0.525902
     52 C18         0.3590    2.7910   -2.4320 c3        1 MOL     -0.362164
     53 C19         1.3390    1.9510   -3.2490 c         1 MOL      0.878017
     54 N6          1.7700    2.4230   -4.3500 n         1 MOL     -0.799175
     55 O11         1.8240    0.9060   -2.8430 o         1 MOL     -0.793590
     56 H20         2.3170    2.8090   -0.9120 hn        1 MOL      0.308559
     57 H21         1.3670    4.6930   -2.7730 h1        1 MOL      0.071128
     58 H22        -0.4720    3.1060   -3.0660 hc        1 MOL      0.122852
     59 H23         0.0450    2.2270   -1.5670 hc        1 MOL      0.122852
     60 H24         1.4420    3.2880   -4.7530 hn        1 MOL      0.360070
     61 H25         2.6600    2.0590   -4.6600 hn        1 MOL      0.360070
     62 N7         -0.9870    5.6720   -1.8780 n         1 MOL     -0.501568
     63 C20        -1.8230    6.6710   -1.1660 c3        1 MOL     -0.055640
     64 C21        -3.2940    6.1160   -1.0950 c         1 MOL      0.514332
     65 O12        -3.9060    5.8190   -2.0900 o         1 MOL     -0.500290
     66 H26        -0.9510    5.8300   -2.8830 hn        1 MOL      0.292258
     67 H27        -1.9190    7.5760   -1.7620 h1        1 MOL      0.098610
     68 H28        -1.3780    7.1090   -0.2700 h1        1 MOL      0.098610
     69 N8         -3.9650    6.2090    0.0810 n         1 MOL     -0.402877
     70 C22        -5.4240    5.8330    0.2370 c3        1 MOL     -0.246791
     71 C23        -5.6640    4.4280    0.7980 c         1 MOL      0.422667
     72 O13        -6.7930    4.0690    1.2100 o         1 MOL     -0.564852
     73 C24        -6.2490    6.9360    0.9330 c3        1 MOL      0.538811
     74 C25        -5.8430    6.9850    2.4290 c3        1 MOL     -0.403936
     75 O14        -5.7840    8.1700    0.4580 oh        1 MOL     -0.628672
     76 H29        -3.4320    6.5430    0.8750 hn        1 MOL      0.239226
     77 H30        -5.8100    5.7400   -0.7740 h1        1 MOL      0.160138
     78 H31        -7.3150    6.8290    0.7460 h1        1 MOL      0.016910
     79 H32        -4.8370    8.1410    0.6380 ho        1 MOL      0.358222
     80 H33        -4.7660    6.8320    2.4630 hc        1 MOL      0.093758
     81 H34        -6.0600    7.9800    2.8130 hc        1 MOL      0.093758
     82 H35        -6.2800    6.1890    3.0220 hc        1 MOL      0.093758
     83 N9         -4.5980    3.6740    0.8490 n         1 MOL     -0.014154
     84 C26        -4.4010    2.3490    1.3130 c3        1 MOL     -0.389680
     85 C27        -3.4010    1.6050    0.4980 c         1 MOL      0.460374
     86 O15        -2.6110    2.2430   -0.2090 o         1 MOL     -0.467436
     87 C28        -3.9710    2.2150    2.7860 c3        1 MOL      0.210151
     88 C29        -2.6360    2.9250    3.0040 c3        1 MOL     -0.048441
     89 C30        -5.0170    2.7120    3.7080 c3        1 MOL     -0.273796
     90 C31        -1.8650    2.5670    4.3350 c3        1 MOL     -0.105058
     91 H36        -3.7870    4.1510    0.4640 hn        1 MOL      0.155798
     92 H37        -5.3630    1.8720    1.1250 h1        1 MOL      0.196461
     93 H38        -3.9240    1.1460    2.9970 hc        1 MOL     -0.009706
     94 H39        -2.9050    3.9870    2.9750 hc        1 MOL      0.067914
     95 H40        -1.9730    2.7080    2.1690 hc        1 MOL      0.067914
     96 H41        -4.7160    2.5180    4.7400 hc        1 MOL      0.059683
     97 H42        -5.1560    3.7910    3.6110 hc        1 MOL      0.059683
     98 H43        -5.9600    2.2310    3.4520 hc        1 MOL      0.059683
     99 H44        -1.6990    1.4940    4.3050 hc        1 MOL      0.029649
    100 H45        -0.9900    3.2120    4.4030 hc        1 MOL      0.029649
    101 H46        -2.5290    2.8310    5.1710 hc        1 MOL      0.029649
    102 N10        -3.3790    0.2960    0.5330 n         1 MOL     -0.330792
    103 C32        -2.5350   -0.5440   -0.2810 c3        1 MOL      0.040551
    104 C33        -3.1640   -1.7620   -0.8750 c         1 MOL      0.572195
    105 O16        -2.5740   -2.8000   -1.2240 o         1 MOL     -0.559677
    106 C34        -1.1240   -0.7710    0.3640 c3        1 MOL     -0.097685
    107 C35         0.0420   -0.8810   -0.6400 c         1 MOL      0.665520
    108 O17         1.1990   -0.9140   -0.1540 o         1 MOL     -0.698679
    109 O18        -0.1620   -1.0430   -1.8440 o         1 MOL     -0.698679
    110 H47        -3.8700   -0.1820    1.2770 hn        1 MOL      0.254558
    111 H48        -2.3450    0.1070   -1.1350 h1        1 MOL      0.053007
    112 H49        -1.0980   -1.6310    1.0380 hc        1 MOL      0.039973
    113 H50        -0.9380    0.0660    1.0250 hc        1 MOL      0.039973
    114 N11        -4.4810   -1.7010   -0.8900 n         1 MOL     -0.466604
    115 C36        -5.2980   -2.8140   -1.3790 c3        1 MOL      0.455083
    116 C37        -5.0960   -4.1330   -0.5980 c         1 MOL      0.184026
    117 O19        -5.2420   -4.0490    0.5870 o         1 MOL     -0.444756
    118 C38        -6.7460   -2.4620   -1.5910 c3        1 MOL     -0.190846
    119 C39        -7.1690   -1.3470   -0.6320 ca        1 MOL      0.065056
    120 C40        -7.5680   -1.6170    0.6770 ca        1 MOL     -0.163153
    121 C41        -7.0340    0.0060   -1.0000 ca        1 MOL     -0.163153
    122 C42        -7.8450   -0.5810    1.5670 ca        1 MOL     -0.091097
    123 C43        -7.4150    0.9950   -0.1470 ca        1 MOL     -0.091097
    124 C44        -7.8340    0.7460    1.1540 ca        1 MOL     -0.149178
    125 H51        -4.9770   -0.8630   -0.6200 hn        1 MOL      0.200788
    126 H52        -4.9440   -3.1050   -2.3620 h1        1 MOL     -0.067213
    127 H53        -7.4960   -3.2560   -1.5390 hc        1 MOL      0.062293
    128 H54        -6.7970   -2.0360   -2.5910 hc        1 MOL      0.062293
    129 H55        -7.6110   -2.6450    0.9890 ha        1 MOL      0.119973
    130 H56        -6.6630    0.3250   -1.9670 ha        1 MOL      0.119973
    131 H57        -8.0920   -0.8270    2.5800 ha        1 MOL      0.103964
    132 H58        -7.2890    2.0340   -0.4390 ha        1 MOL      0.103964
    133 H59        -8.0400    1.6310    1.7330 ha        1 MOL      0.144858
    134 N12        -4.7530   -5.2650   -1.2680 n         1 MOL     -0.073497
    135 C45        -4.5230   -6.5640   -0.5750 c3        1 MOL      0.110012
    136 C46        -3.2470   -6.5990    0.3380 c         1 MOL      0.163540
    137 O20        -3.1840   -7.4130    1.2600 o         1 MOL     -0.488796
    138 C47        -4.2100   -7.6170   -1.6110 c3        1 MOL     -0.074818
    139 C48        -4.8040   -7.0000   -2.8310 c3        1 MOL     -0.101253
    140 C49        -4.5670   -5.5020   -2.6610 c3        1 MOL     -0.001809
    141 H60        -5.3270   -6.8360    0.1000 h1        1 MOL      0.066027
    142 H61        -3.1400   -7.6830   -1.7780 hc        1 MOL      0.061802
    143 H62        -4.5510   -8.5950   -1.2640 hc        1 MOL      0.061802
    144 H63        -4.3960   -7.4700   -3.7170 hc        1 MOL      0.035296
    145 H64        -5.8910   -7.0100   -2.7800 hc        1 MOL      0.035296
    146 H65        -3.5640   -5.3150   -3.0450 h1        1 MOL      0.041956
    147 H66        -5.3360   -4.9630   -3.2120 h1        1 MOL      0.041956
    148 N13        -2.3450   -5.6330    0.2840 n         1 MOL      0.053248
    149 C50        -1.3910   -5.3840    1.3630 c3        1 MOL     -0.360760
    150 C51        -1.8980   -4.6010    2.6200 c         1 MOL      0.505139
    151 O21        -1.2570   -4.7580    3.6900 o         1 MOL     -0.552076
    152 C52        -0.1670   -4.5750    0.8440 c3        1 MOL      0.028139
    153 C53         0.5140   -5.3440   -0.2990 c3        1 MOL     -0.042094
    154 C54         1.3100   -4.3830   -1.1130 c         1 MOL      0.696844
    155 O22         2.3940   -3.9590   -0.6600 o         1 MOL     -0.805868
    156 O23         0.9090   -3.9060   -2.2080 o         1 MOL     -0.805868
    157 H67        -2.3750   -4.9540   -0.4640 hn        1 MOL      0.223448
    158 H68        -1.0670   -6.3220    1.8100 h1        1 MOL      0.166720
    159 H69         0.6050   -4.4050    1.5990 hc        1 MOL      0.086235
    160 H70        -0.4870   -3.5860    0.4930 hc        1 MOL      0.086235
    161 H71        -0.2210   -5.8180   -0.9580 hc        1 MOL     -0.009500
    162 H72         1.1590   -6.1350    0.0950 hc        1 MOL     -0.009500
    163 N14        -3.0190   -3.8740    2.5600 n         1 MOL     -0.096581
    164 C55        -3.6860   -3.2430    3.7310 c3        1 MOL     -0.382245
    165 H73        -4.6970   -2.9420    3.4540 h1        1 MOL      0.134736
    166 H74        -3.7330   -3.9580    4.5520 h1        1 MOL      0.134736
    167 H75        -3.1200   -2.3660    4.0430 h1        1 MOL      0.134736
    168 H76        -3.5540   -3.7710    1.7030 hn        1 MOL      0.141189
    169 Ca1         2.2910   -1.7730   -2.5500 Ca        1 MOL      1.819539
    170 O24         3.2510   -3.7000   -4.0460 oh        1 MOL     -0.805238
    171 H77         2.5180   -4.2490   -4.3360 ho        1 MOL      0.400491
    172 H78         4.0300   -4.2510   -4.1450 ho        1 MOL      0.400491
    173 O25         4.3420   -0.9640   -4.1310 oh        1 MOL     -0.805238
    174 H79         4.2770   -0.2900   -4.8170 ho        1 MOL      0.400491
    175 H80         5.2340   -1.2820   -4.1930 ho        1 MOL      0.400491
    176 O26         1.5290   -1.4230   -5.0380 oh        1 MOL     -0.805238
    177 H81         0.9790   -0.6970   -5.2920 ho        1 MOL      0.400491
    178 H82         2.1770   -1.4960   -5.7390 ho        1 MOL      0.400491
@<TRIPOS>BOND
     1    1    2 1   
     2    1    4 1   
     3    1    5 1   
     4    1    6 1   
     5    2    3 2   
     6    2    7 1   
     7    7    8 1   
     8    7   15 1   
     9    8    9 1   
    10    8   11 1   
    11    8   16 1   
    12    9   10 2   
    13    9   19 1   
    14   11   12 1   
    15   11   17 1   
    16   11   18 1   
    17   12   13 1   
    18   12   14 1   
    19   19   20 1   
    20   19   24 1   
    21   20   21 1   
    22   20   23 1   
    23   20   25 1   
    24   21   22 2   
    25   21   29 1   
    26   23   26 1   
    27   23   27 1   
    28   23   28 1   
    29   29   30 1   
    30   29   37 1   
    31   30   31 1   
    32   30   33 1   
    33   30   38 1   
    34   31   32 2   
    35   31   41 1   
    36   33   34 1   
    37   33   39 1   
    38   33   40 1   
    39   34   35 1   
    40   34   36 1   
    41   41   42 1   
    42   41   45 1   
    43   42   43 1   
    44   42   46 1   
    45   42   47 1   
    46   43   44 2   
    47   43   48 1   
    48   48   49 1   
    49   48   56 1   
    50   49   50 1   
    51   49   52 1   
    52   49   57 1   
    53   50   51 2   
    54   50   62 1   
    55   52   53 1   
    56   52   58 1   
    57   52   59 1   
    58   53   54 1   
    59   53   55 2   
    60   54   60 1   
    61   54   61 1   
    62   62   63 1   
    63   62   66 1   
    64   63   64 1   
    65   63   67 1   
    66   63   68 1   
    67   64   65 2   
    68   64   69 1   
    69   69   70 1   
    70   69   76 1   
    71   70   71 1   
    72   70   73 1   
    73   70   77 1   
    74   71   72 2   
    75   71   83 1   
    76   73   74 1   
    77   73   75 1   
    78   73   78 1   
    79   74   80 1   
    80   74   81 1   
    81   74   82 1   
    82   75   79 1   
    83   83   84 1   
    84   83   91 1   
    85   84   85 1   
    86   84   87 1   
    87   84   92 1   
    88   85   86 2   
    89   85  102 1   
    90   87   88 1   
    91   87   89 1   
    92   87   93 1   
    93   88   90 1   
    94   88   94 1   
    95   88   95 1   
    96   89   96 1   
    97   89   97 1   
    98   89   98 1   
    99   90   99 1   
   100   90  100 1   
   101   90  101 1   
   102  102  103 1   
   103  102  110 1   
   104  103  104 1   
   105  103  106 1   
   106  103  111 1   
   107  104  105 2   
   108  104  114 1   
   109  106  107 1   
   110  106  112 1   
   111  106  113 1   
   112  107  108 1   
   113  107  109 1   
   114  114  115 1   
   115  114  125 1   
   116  115  116 1   
   117  115  118 1   
   118  115  126 1   
   119  116  117 2   
   120  116  134 1   
   121  118  119 1   
   122  118  127 1   
   123  118  128 1   
   124  119  120 ar  
   125  119  121 ar  
   126  120  122 ar  
   127  120  129 1   
   128  121  123 ar  
   129  121  130 1   
   130  122  124 ar  
   131  122  131 1   
   132  123  124 ar  
   133  123  132 1   
   134  124  133 1   
   135  134  135 1   
   136  134  140 1   
   137  135  136 1   
   138  135  138 1   
   139  135  141 1   
   140  136  137 2   
   141  136  148 1   
   142  138  139 1   
   143  138  142 1   
   144  138  143 1   
   145  139  140 1   
   146  139  144 1   
   147  139  145 1   
   148  140  146 1   
   149  140  147 1   
   150  148  149 1   
   151  148  157 1   
   152  149  150 1   
   153  149  152 1   
   154  149  158 1   
   155  150  151 2   
   156  150  163 1   
   157  152  153 1   
   158  152  159 1   
   159  152  160 1   
   160  153  154 1   
   161  153  161 1   
   162  153  162 1   
   163  154  155 1   
   164  154  156 1   
   165  163  164 1   
   166  163  168 1   
   167  164  165 1   
   168  164  166 1   
   169  164  167 1   
   170  170  171 1   
   171  170  172 1   
   172  173  174 1   
   173  173  175 1   
   174  176  177 1   
   175  176  178 1   
@<TRIPOS>SUBSTRUCTURE
     1 MOL         1 TEMP              0 ****  ****    0 ROOT
