@<TRIPOS>MOLECULE
MOL
  185   180     1     0     0
SMALL
resp


@<TRIPOS>ATOM
      1 C1          6.1930   -0.4260    5.4000 c3        1 MOL     -0.381335
      2 C2          5.6000   -0.4140    3.9890 c         1 MOL      0.613081
      3 O1          4.3950   -0.2300    3.7620 o         1 MOL     -0.591022
      4 H1          5.4950    0.0490    6.0900 hc        1 MOL      0.099634
      5 H2          6.3670   -1.4560    5.7120 hc        1 MOL      0.099634
      6 H3          7.1360    0.1200    5.4030 hc        1 MOL      0.099634
      7 N1          6.4210   -0.5840    2.9780 n         1 MOL     -0.449153
      8 C3          5.9940   -0.2210    1.5750 c3        1 MOL      0.148162
      9 C4          5.3060   -1.4320    0.9890 c         1 MOL      0.584215
     10 O2          4.2420   -1.2590    0.3650 o         1 MOL     -0.636510
     11 C5          7.2440    0.2380    0.7290 c3        1 MOL     -0.205069
     12 C6          8.5210   -0.6440    0.6740 c         1 MOL      0.689913
     13 O3          8.6150   -1.7540    1.2460 o         1 MOL     -0.655307
     14 O4          9.5640   -0.1750    0.1290 o         1 MOL     -0.655307
     15 H4          7.4110   -0.7080    3.1560 hn        1 MOL      0.249530
     16 H5          5.2660    0.5960    1.5580 h1        1 MOL      0.051837
     17 H6          7.5730    1.1050    1.2950 hc        1 MOL      0.054704
     18 H7          6.9150    0.5700   -0.2510 hc        1 MOL      0.054704
     19 N2          5.8830   -2.6410    1.0960 n         1 MOL     -0.581517
     20 C7          5.3710   -3.8660    0.6030 c3        1 MOL      0.214876
     21 C8          5.3170   -3.8580   -0.9120 c         1 MOL      0.446599
     22 O5          6.3860   -3.9280   -1.5950 o         1 MOL     -0.503591
     23 C9          5.9260   -5.1190    1.2660 c3        1 MOL     -0.232627
     24 C10         5.6330   -5.1200    2.7870 c3        1 MOL      0.270350
     25 C11         6.1620   -6.4510    3.3880 c3        1 MOL     -0.136731
     26 C12         5.7770   -6.4990    4.9020 c3        1 MOL      0.162630
     27 N3          6.8970   -6.9100    5.8120 n4        1 MOL     -0.501799
     28 H8          6.8620   -2.6930    1.3420 hn        1 MOL      0.311745
     29 H9          4.3750   -3.9690    1.0340 h1        1 MOL      0.078701
     30 H10         6.9750   -5.2550    1.0090 hc        1 MOL      0.063072
     31 H11         5.2780   -5.9200    0.9240 hc        1 MOL      0.063072
     32 H12         4.5610   -4.9620    2.9100 hc        1 MOL     -0.056611
     33 H13         6.2240   -4.2900    3.1890 hc        1 MOL     -0.056611
     34 H14         7.2460   -6.3880    3.2330 hc        1 MOL      0.053948
     35 H15         5.7800   -7.3700    2.9450 hc        1 MOL      0.053948
     36 H16         4.8600   -7.0790    4.9830 hx        1 MOL      0.050987
     37 H17         5.3330   -5.5580    5.2170 hx        1 MOL      0.050987
     38 H18         6.5740   -7.0820    6.7560 hn        1 MOL      0.349005
     39 H19         7.2310   -7.7960    5.4640 hn        1 MOL      0.349005
     40 H20         7.6050   -6.1900    5.7900 hn        1 MOL      0.349005
     41 N4          4.0870   -3.7630   -1.4420 n         1 MOL     -0.426861
     42 C13         3.7170   -3.6100   -2.8810 c3        1 MOL     -0.034299
     43 C14         4.0220   -2.2010   -3.4340 c         1 MOL      0.554356
     44 O6          3.7360   -1.9470   -4.5770 o         1 MOL     -0.529992
     45 C15         2.1990   -3.9360   -2.9190 c3        1 MOL     -0.172226
     46 C16         1.3010   -2.9910   -2.1850 c         1 MOL      0.769809
     47 O7          0.7240   -2.0880   -2.9000 o         1 MOL     -0.735852
     48 O8          1.2330   -3.0350   -0.9880 o         1 MOL     -0.735852
     49 H21         3.2800   -3.8400   -0.8370 hn        1 MOL      0.231588
     50 H22         4.3010   -4.2890   -3.5130 h1        1 MOL      0.121225
     51 H23         2.0280   -4.9300   -2.5090 hc        1 MOL      0.057071
     52 H24         1.9000   -4.0940   -3.9610 hc        1 MOL      0.057071
     53 N5          4.3760   -1.2360   -2.5880 n         1 MOL     -0.507215
     54 C17         4.4860    0.1810   -2.9120 c3        1 MOL      0.025523
     55 C18         5.6600    0.5380   -3.8620 c         1 MOL      0.560818
     56 O9          6.3120   -0.3220   -4.4290 o         1 MOL     -0.478441
     57 H25         4.4850   -1.4970   -1.6150 hn        1 MOL      0.373470
     58 H26         4.6080    0.7550   -1.9900 h1        1 MOL      0.098274
     59 H27         3.5190    0.4620   -3.3330 h1        1 MOL      0.098274
     60 N6          5.8980    1.8060   -4.1720 n         1 MOL     -0.619967
     61 C19         5.0990    2.9490   -3.6380 c3        1 MOL      0.345963
     62 C20         5.5990    3.5140   -2.2440 c         1 MOL      0.515074
     63 O10         6.8390    3.5570   -2.0280 o         1 MOL     -0.528319
     64 C21         4.9840    4.0280   -4.6700 c3        1 MOL     -0.333090
     65 C22         4.1230    5.2100   -4.1350 c         1 MOL      0.714658
     66 N7          4.6560    6.1710   -3.3600 n         1 MOL     -0.808162
     67 O11         2.9170    5.2130   -4.3160 o         1 MOL     -0.570644
     68 H28         6.5910    1.9280   -4.8980 hn        1 MOL      0.343184
     69 H29         4.0540    2.6280   -3.5680 h1        1 MOL     -0.026375
     70 H30         4.5020    3.6950   -5.5870 hc        1 MOL      0.098498
     71 H31         6.0020    4.3920   -4.8110 hc        1 MOL      0.098498
     72 H32         5.6140    6.2430   -3.0330 hn        1 MOL      0.369559
     73 H33         3.9810    6.5900   -2.7290 hn        1 MOL      0.369559
     74 N8          4.7490    3.8690   -1.2590 n         1 MOL     -0.568068
     75 C23         3.3000    3.4930   -1.3160 c3        1 MOL      0.068350
     76 C24         2.5280    3.7580   -0.0250 c         1 MOL      0.517012
     77 O12         3.0600    4.4280    0.8800 o         1 MOL     -0.534128
     78 H34         5.0780    3.9710   -0.3200 hn        1 MOL      0.328979
     79 H35         3.2110    2.4430   -1.6150 h1        1 MOL      0.024127
     80 H36         2.8510    4.0640   -2.1150 h1        1 MOL      0.024127
     81 N9          1.2810    3.4150    0.0200 n         1 MOL     -0.365453
     82 C25         0.2440    3.7960    0.9830 c3        1 MOL      0.081970
     83 C26        -0.8810    2.7290    1.0340 c         1 MOL      0.621621
     84 O13        -0.8330    1.6690    0.3690 o         1 MOL     -0.577052
     85 C27        -0.3390    5.2060    0.6380 c3        1 MOL     -0.231205
     86 C28        -0.9580    6.0350    1.7620 ca        1 MOL      0.107557
     87 C29        -2.3740    6.1990    1.8150 ca        1 MOL     -0.191835
     88 C30        -0.1270    6.4720    2.8660 ca        1 MOL     -0.191835
     89 C31        -2.9960    6.8470    2.8950 ca        1 MOL     -0.235174
     90 C32        -0.7920    6.9850    4.0240 ca        1 MOL     -0.235174
     91 C33        -2.2040    7.2290    4.0180 ca        1 MOL      0.305662
     92 O14        -2.8480    7.7790    5.0940 oh        1 MOL     -0.470752
     93 H37         0.9570    2.8990   -0.7890 hn        1 MOL      0.217700
     94 H38         0.6240    3.8910    2.0010 h1        1 MOL      0.059498
     95 H39        -1.0160    5.0820   -0.2070 hc        1 MOL      0.089202
     96 H40         0.4710    5.8500    0.2820 hc        1 MOL      0.089202
     97 H41        -3.0490    5.9540    1.0020 ha        1 MOL      0.169825
     98 H42         0.9490    6.3450    2.8850 ha        1 MOL      0.169825
     99 H43        -4.0580    6.9430    3.0270 ha        1 MOL      0.141575
    100 H44        -0.1940    7.2510    4.8880 ha        1 MOL      0.141575
    101 H45        -2.2120    7.8270    5.8150 ho        1 MOL      0.361266
    102 N10        -1.8300    2.9150    1.8970 n         1 MOL     -0.369192
    103 C34        -3.0210    2.1810    2.0170 c3        1 MOL     -0.216013
    104 C35        -4.0220    2.7260    0.9870 c         1 MOL      0.583141
    105 O15        -3.9310    3.8410    0.5210 o         1 MOL     -0.503753
    106 C36        -3.7030    2.3940    3.3860 c3        1 MOL      0.230253
    107 C37        -3.1210    1.4930    4.4460 c3        1 MOL      0.155490
    108 C38        -3.6440    3.7820    3.8460 c3        1 MOL     -0.104381
    109 C39        -3.8530    1.2190    5.7820 c3        1 MOL     -0.349664
    110 H46        -1.7820    3.8400    2.2960 hn        1 MOL      0.203263
    111 H47        -2.7200    1.1400    1.9080 h1        1 MOL      0.091217
    112 H48        -4.7500    2.0840    3.3220 hc        1 MOL     -0.044121
    113 H49        -2.1380    1.9040    4.6280 hc        1 MOL     -0.021978
    114 H50        -2.9540    0.4790    4.0860 hc        1 MOL     -0.021978
    115 H51        -4.1310    4.3690    3.0620 hc        1 MOL      0.029415
    116 H52        -4.0730    3.9480    4.8290 hc        1 MOL      0.029415
    117 H53        -2.6300    4.1780    3.9340 hc        1 MOL      0.029415
    118 H54        -3.8220    2.1060    6.4190 hc        1 MOL      0.085935
    119 H55        -4.8440    0.8280    5.5290 hc        1 MOL      0.085935
    120 H56        -3.3690    0.4490    6.3790 hc        1 MOL      0.085935
    121 N11        -4.9870    1.8270    0.6050 n         1 MOL     -0.369368
    122 C40        -6.0260    2.0540   -0.4100 c3        1 MOL      0.074546
    123 C41        -6.2630    0.8390   -1.2950 c         1 MOL      0.500581
    124 O16        -5.9500   -0.2610   -0.8540 o         1 MOL     -0.427061
    125 C42        -7.3450    2.3500    0.2300 c3        1 MOL      0.035917
    126 O17        -7.9120    1.3740    1.1070 oh        1 MOL     -0.592707
    127 H57        -4.8870    0.8760    0.9490 hn        1 MOL      0.254283
    128 H58        -5.7550    2.9010   -1.0270 h1        1 MOL      0.027323
    129 H59        -8.0730    2.5060   -0.5680 h1        1 MOL      0.042839
    130 H60        -7.2390    3.2780    0.7890 h1        1 MOL      0.042839
    131 H61        -8.4850    1.8090    1.7400 ho        1 MOL      0.416750
    132 N12        -6.7930    1.1570   -2.4660 n         1 MOL     -0.483691
    133 C43        -7.0070    0.1600   -3.5990 c3        1 MOL      0.034035
    134 C44        -7.6410   -1.1330   -3.1170 c         1 MOL      0.467922
    135 O18        -7.4750   -2.1780   -3.6970 o         1 MOL     -0.423833
    136 C45        -5.5870   -0.1390   -4.1700 c3        1 MOL     -0.217005
    137 H62        -7.0820    2.0940   -2.7200 hn        1 MOL      0.318946
    138 H63        -7.6090    0.8040   -4.2410 h1        1 MOL      0.102008
    139 H64        -5.6860   -0.8270   -5.0070 hc        1 MOL      0.080849
    140 H65        -5.2140    0.8070   -4.5500 hc        1 MOL      0.080849
    141 H66        -4.9180   -0.4890   -3.3960 hc        1 MOL      0.080849
    142 N13        -8.4420   -1.0460   -1.9590 n         1 MOL     -0.527006
    143 C46        -9.2340   -2.1340   -1.3440 c3        1 MOL      0.163457
    144 C47        -8.4500   -3.4200   -0.9150 c         1 MOL      0.416381
    145 O19        -9.0200   -4.5140   -1.0360 o         1 MOL     -0.487038
    146 C48       -10.4330   -2.3990   -2.2540 c3        1 MOL     -0.280991
    147 H67        -8.7350   -0.1650   -1.5820 hn        1 MOL      0.299414
    148 H68        -9.6520   -1.8590   -0.3760 h1        1 MOL      0.041594
    149 H69       -11.0340   -1.5510   -2.5570 hc        1 MOL      0.086504
    150 H70       -10.0900   -2.6640   -3.2470 hc        1 MOL      0.086504
    151 H71       -11.1050   -3.1830   -1.9020 hc        1 MOL      0.086504
    152 N14        -7.2420   -3.3200   -0.3320 n         1 MOL     -0.333310
    153 C49        -6.3620   -4.4690   -0.0220 c3        1 MOL      0.010384
    154 C50        -6.7170   -5.1080    1.2600 c         1 MOL      0.400186
    155 O20        -6.6880   -6.3330    1.3910 o         1 MOL     -0.523868
    156 C51        -4.9590   -3.9030    0.2100 c3        1 MOL     -0.015913
    157 C52        -4.3700   -3.2750   -1.0510 c3        1 MOL     -0.062780
    158 C53        -2.9930   -2.6960   -0.8540 c         1 MOL      0.713822
    159 O21        -2.0180   -2.7740   -1.6230 o         1 MOL     -0.771286
    160 O22        -2.8020   -1.8880    0.1050 o         1 MOL     -0.771286
    161 H72        -6.9100   -2.3660   -0.2450 hn        1 MOL      0.250146
    162 H73        -6.3670   -5.2000   -0.8350 h1        1 MOL      0.130000
    163 H74        -4.3770   -4.7170    0.6570 hc        1 MOL      0.014457
    164 H75        -5.0810   -3.1350    0.9720 hc        1 MOL      0.014457
    165 H76        -4.9990   -2.5050   -1.5050 hc        1 MOL      0.042505
    166 H77        -4.3680   -4.0270   -1.8370 hc        1 MOL      0.042505
    167 N15        -7.1910   -4.3910    2.2820 n         1 MOL     -0.236269
    168 C54        -7.5400   -5.0310    3.6450 c3        1 MOL     -0.125880
    169 H78        -7.2660   -6.0860    3.6300 h1        1 MOL      0.083416
    170 H79        -6.9890   -4.5240    4.4370 h1        1 MOL      0.083416
    171 H80        -8.6100   -4.9370    3.8270 h1        1 MOL      0.083416
    172 H81        -7.3690   -3.3980    2.1640 hn        1 MOL      0.198218
    173 Ca1        -0.5430   -0.7920   -0.9260 Ca        1 MOL      1.743977
    174 O23        -0.1530   -1.3240    1.6410 oh        1 MOL     -0.847292
    175 H82         0.5500   -1.3360    2.2970 ho        1 MOL      0.415620
    176 H83        -0.7800   -1.9730    1.9600 ho        1 MOL      0.415620
    177 O24         0.1880    1.1970   -2.5260 oh        1 MOL     -0.847292
    178 O25        -2.4710    0.1100   -2.4630 oh        1 MOL     -0.847292
    179 H84        -0.5580    1.7940   -2.5700 ho        1 MOL      0.415620
    180 H85        -2.2900   -0.2440   -3.3260 ho        1 MOL      0.415620
    181 H86         0.7110    1.4140   -3.2930 ho        1 MOL      0.415620
    182 H87        -2.9320    0.9290   -2.6220 ho        1 MOL      0.415620
    183 O26         1.9620    0.3830   -0.1170 oh        1 MOL     -0.847292
    184 H88         1.9590    0.4000    0.8400 ho        1 MOL      0.415620
    185 H89         2.7720   -0.0830   -0.3400 ho        1 MOL      0.415620
@<TRIPOS>BOND
     1    1    2 1   
     2    1    4 1   
     3    1    5 1   
     4    1    6 1   
     5    2    3 2   
     6    2    7 1   
     7    7    8 1   
     8    7   15 1   
     9    8    9 1   
    10    8   11 1   
    11    8   16 1   
    12    9   10 2   
    13    9   19 1   
    14   11   12 1   
    15   11   17 1   
    16   11   18 1   
    17   12   13 1   
    18   12   14 1   
    19   19   20 1   
    20   19   28 1   
    21   20   21 1   
    22   20   23 1   
    23   20   29 1   
    24   21   22 2   
    25   21   41 1   
    26   23   24 1   
    27   23   30 1   
    28   23   31 1   
    29   24   25 1   
    30   24   32 1   
    31   24   33 1   
    32   25   26 1   
    33   25   34 1   
    34   25   35 1   
    35   26   27 1   
    36   26   36 1   
    37   26   37 1   
    38   27   38 1   
    39   27   39 1   
    40   27   40 1   
    41   41   42 1   
    42   41   49 1   
    43   42   43 1   
    44   42   45 1   
    45   42   50 1   
    46   43   44 2   
    47   43   53 1   
    48   45   46 1   
    49   45   51 1   
    50   45   52 1   
    51   46   47 1   
    52   46   48 1   
    53   53   54 1   
    54   53   57 1   
    55   54   55 1   
    56   54   58 1   
    57   54   59 1   
    58   55   56 2   
    59   55   60 1   
    60   60   61 1   
    61   60   68 1   
    62   61   62 1   
    63   61   64 1   
    64   61   69 1   
    65   62   63 2   
    66   62   74 1   
    67   64   65 1   
    68   64   70 1   
    69   64   71 1   
    70   65   66 1   
    71   65   67 2   
    72   66   72 1   
    73   66   73 1   
    74   74   75 1   
    75   74   78 1   
    76   75   76 1   
    77   75   79 1   
    78   75   80 1   
    79   76   77 2   
    80   76   81 1   
    81   81   82 1   
    82   81   93 1   
    83   82   83 1   
    84   82   85 1   
    85   82   94 1   
    86   83   84 2   
    87   83  102 1   
    88   85   86 1   
    89   85   95 1   
    90   85   96 1   
    91   86   87 ar  
    92   86   88 ar  
    93   87   89 ar  
    94   87   97 1   
    95   88   90 ar  
    96   88   98 1   
    97   89   91 ar  
    98   89   99 1   
    99   90   91 ar  
   100   90  100 1   
   101   91   92 1   
   102   92  101 1   
   103  102  103 1   
   104  102  110 1   
   105  103  104 1   
   106  103  106 1   
   107  103  111 1   
   108  104  105 2   
   109  104  121 1   
   110  106  107 1   
   111  106  108 1   
   112  106  112 1   
   113  107  109 1   
   114  107  113 1   
   115  107  114 1   
   116  108  115 1   
   117  108  116 1   
   118  108  117 1   
   119  109  118 1   
   120  109  119 1   
   121  109  120 1   
   122  121  122 1   
   123  121  127 1   
   124  122  123 1   
   125  122  125 1   
   126  122  128 1   
   127  123  124 2   
   128  123  132 1   
   129  125  126 1   
   130  125  129 1   
   131  125  130 1   
   132  126  131 1   
   133  132  133 1   
   134  132  137 1   
   135  133  134 1   
   136  133  136 1   
   137  133  138 1   
   138  134  135 2   
   139  134  142 1   
   140  136  139 1   
   141  136  140 1   
   142  136  141 1   
   143  142  143 1   
   144  142  147 1   
   145  143  144 1   
   146  143  146 1   
   147  143  148 1   
   148  144  145 2   
   149  144  152 1   
   150  146  149 1   
   151  146  150 1   
   152  146  151 1   
   153  152  153 1   
   154  152  161 1   
   155  153  154 1   
   156  153  156 1   
   157  153  162 1   
   158  154  155 2   
   159  154  167 1   
   160  156  157 1   
   161  156  163 1   
   162  156  164 1   
   163  157  158 1   
   164  157  165 1   
   165  157  166 1   
   166  158  159 1   
   167  158  160 1   
   168  167  168 1   
   169  167  172 1   
   170  168  169 1   
   171  168  170 1   
   172  168  171 1   
   173  174  175 1   
   174  174  176 1   
   175  177  179 1   
   176  177  181 1   
   177  178  180 1   
   178  178  182 1   
   179  183  184 1   
   180  183  185 1   
@<TRIPOS>SUBSTRUCTURE
     1 MOL         1 TEMP              0 ****  ****    0 ROOT
