@<TRIPOS>MOLECULE
MOL
  192   187     1     0     0
SMALL
resp


@<TRIPOS>ATOM
      1 C1          5.4570    4.0010   -3.3950 c3        1 MOL     -0.368373
      2 C2          5.8900    3.0410   -2.3060 c         1 MOL      0.765148
      3 O1          5.2350    2.8100   -1.3490 o         1 MOL     -0.636600
      4 H1          6.2740    4.1420   -4.1020 hc        1 MOL      0.083706
      5 H2          4.5920    3.5920   -3.9180 hc        1 MOL      0.083706
      6 H3          5.1930    4.9610   -2.9510 hc        1 MOL      0.083706
      7 N1          7.0160    2.4360   -2.5680 n         1 MOL     -0.648833
      8 C3          7.5780    1.2530   -1.9200 c3        1 MOL      0.054017
      9 C4          6.4050    0.2070   -1.6950 c         1 MOL      0.221550
     10 O2          5.9900   -0.0530   -0.5810 o         1 MOL     -0.213415
     11 C5          8.3760    1.5660   -0.6310 c3        1 MOL      0.100599
     12 C6          7.9750    2.6740    0.2380 c         1 MOL      0.683918
     13 O3          6.9200    2.4900    0.8640 o         1 MOL     -0.728594
     14 O4          8.7560    3.6560    0.3360 o         1 MOL     -0.728594
     15 H4          7.5550    2.7580   -3.3600 hn        1 MOL      0.340426
     16 H5          8.2740    0.8090   -2.6270 h1        1 MOL      0.059272
     17 H6          9.4030    1.8230   -0.8870 hc        1 MOL     -0.046338
     18 H7          8.3580    0.6600   -0.0170 hc        1 MOL     -0.046338
     19 N2          5.9780   -0.3660   -2.8190 n         1 MOL     -0.319688
     20 C7          5.0150   -1.4790   -2.9830 c3        1 MOL      0.004695
     21 C8          5.4080   -2.7930   -2.2650 c         1 MOL      0.342786
     22 O5          5.2320   -3.8830   -2.8480 o         1 MOL     -0.535404
     23 C9          3.6810   -0.8620   -2.4070 c3        1 MOL      0.101825
     24 C10         2.4980   -1.8210   -2.6420 c3        1 MOL      0.034116
     25 C11         3.3140    0.4630   -3.0320 c3        1 MOL     -0.293675
     26 C12         2.3610   -2.3820   -4.0920 c3        1 MOL     -0.147651
     27 H8          6.4200   -0.0360   -3.6660 hn        1 MOL      0.263290
     28 H9          5.0110   -1.6620   -4.0580 h1        1 MOL      0.084686
     29 H10         3.7690   -0.8370   -1.3180 hc        1 MOL     -0.101808
     30 H11         1.5630   -1.3770   -2.3310 hc        1 MOL      0.080165
     31 H12         2.5910   -2.7410   -2.0560 hc        1 MOL      0.080165
     32 H13         3.9640    1.2590   -2.6820 hc        1 MOL      0.063363
     33 H14         3.3730    0.3700   -4.1160 hc        1 MOL      0.063363
     34 H15         2.2910    0.7710   -2.8240 hc        1 MOL      0.063363
     35 H16         2.6100   -1.5740   -4.7720 hc        1 MOL      0.015538
     36 H17         2.9690   -3.2310   -4.3900 hc        1 MOL      0.015538
     37 H18         1.3180   -2.6770   -4.2600 hc        1 MOL      0.015538
     38 N3          5.8480   -2.7590   -1.0150 n         1 MOL     -0.000994
     39 C13         6.4350   -3.9230   -0.2810 c3        1 MOL     -0.079604
     40 C14         5.4700   -5.1280    0.0500 c         1 MOL      0.556032
     41 O6          5.8620   -6.3260   -0.1890 o         1 MOL     -0.614746
     42 C15         7.1950   -3.5150    1.0350 c3        1 MOL     -0.212590
     43 C16         8.1860   -2.4220    0.8760 c         1 MOL      0.789920
     44 O7          8.3330   -1.7020    1.8910 o         1 MOL     -0.723784
     45 O8          8.9680   -2.3990   -0.1460 o         1 MOL     -0.723784
     46 H19         5.9960   -1.8540   -0.5860 hn        1 MOL      0.067999
     47 H20         7.1810   -4.3460   -0.9660 h1        1 MOL      0.063653
     48 H21         7.5590   -4.4480    1.4450 hc        1 MOL      0.059756
     49 H22         6.4860   -3.1190    1.7660 hc        1 MOL      0.059756
     50 N4          4.2650   -4.9740    0.5340 n         1 MOL     -0.451975
     51 C17         3.5260   -3.7250    0.9210 c3        1 MOL      0.101223
     52 C18         2.1520   -4.0500    1.5950 c         1 MOL      0.707254
     53 O9          1.7490   -5.1620    1.4550 o         1 MOL     -0.601355
     54 H23         3.8720   -5.8150    0.9180 hn        1 MOL      0.279638
     55 H24         3.3580   -3.2050   -0.0130 h1        1 MOL     -0.000164
     56 H25         4.1380   -3.1410    1.6160 h1        1 MOL     -0.000164
     57 N5          1.4330   -3.1300    2.2940 n         1 MOL     -0.510334
     58 C19         1.7920   -1.7560    2.6500 c3        1 MOL      0.027469
     59 C20         2.0260   -0.8360    1.4370 c         1 MOL      0.780473
     60 O10         3.1980   -0.5170    1.1280 o         1 MOL     -0.797603
     61 C21         2.8480   -1.7220    3.8210 c3        1 MOL     -0.344014
     62 C22         2.4190   -2.7120    4.9140 c         1 MOL      0.709147
     63 O11         3.3570   -3.1200    5.6010 o         1 MOL     -0.714947
     64 O12         1.2130   -2.9550    5.1660 o         1 MOL     -0.714947
     65 H26         0.4960   -3.4490    2.5170 hn        1 MOL      0.277971
     66 H27         0.8840   -1.4220    3.1470 h1        1 MOL      0.093604
     67 H28         2.7970   -0.7290    4.2830 hc        1 MOL      0.122981
     68 H29         3.8640   -1.8880    3.4830 hc        1 MOL      0.122981
     69 N6          1.0830   -0.4400    0.6580 n         1 MOL     -0.561669
     70 C23        -0.3480   -0.9000    0.6840 c3        1 MOL     -0.005403
     71 C24        -0.7410   -2.2350   -0.1090 c         1 MOL      0.454150
     72 O13         0.0180   -2.7270   -0.8810 o         1 MOL     -0.530255
     73 H30         1.3690    0.1050   -0.1320 hn        1 MOL      0.357507
     74 H31        -0.9720   -0.0640    0.3790 h1        1 MOL      0.076937
     75 H32        -0.6160   -1.0910    1.7240 h1        1 MOL      0.076937
     76 N7         -1.9050   -2.7580    0.0990 n         1 MOL     -0.331353
     77 C25        -2.3790   -3.9640   -0.6000 c3        1 MOL      0.017470
     78 C26        -3.1130   -3.6710   -1.9210 c         1 MOL      0.443606
     79 O14        -3.3040   -4.6150   -2.6840 o         1 MOL     -0.524313
     80 C27        -3.1400   -4.9200    0.3590 c3        1 MOL     -0.041558
     81 C28        -4.2120   -4.2940    1.2620 c3        1 MOL     -0.178340
     82 C29        -5.4160   -4.0130    0.4120 c         1 MOL      0.628472
     83 N8         -6.3050   -4.9780    0.2780 n         1 MOL     -0.747628
     84 O15        -5.4860   -2.8840   -0.0930 o         1 MOL     -0.498757
     85 H33        -2.5890   -2.2320    0.6390 hn        1 MOL      0.214090
     86 H34        -1.4670   -4.4640   -0.9090 h1        1 MOL      0.136168
     87 H35        -2.4140   -5.3550    1.0570 hc        1 MOL      0.040296
     88 H36        -3.4770   -5.7710   -0.2400 hc        1 MOL      0.040296
     89 H37        -3.8420   -3.3070    1.5420 hc        1 MOL      0.074602
     90 H38        -4.4750   -4.8990    2.1350 hc        1 MOL      0.074602
     91 H39        -6.1890   -5.9110    0.6390 hn        1 MOL      0.361736
     92 H40        -7.0100   -4.8210   -0.4230 hn        1 MOL      0.361736
     93 N9         -3.4320   -2.3700   -2.1880 n         1 MOL     -0.242044
     94 C30        -3.9330   -1.8260   -3.4120 c3        1 MOL     -0.099202
     95 C31        -5.1740   -1.0410   -3.3080 c         1 MOL      0.394099
     96 O16        -5.6380   -0.4840   -4.2900 o         1 MOL     -0.528496
     97 C32        -2.8220   -1.0970   -4.1390 c3        1 MOL      0.240924
     98 C33        -1.5650   -1.9070   -4.5450 c3        1 MOL     -0.193946
     99 C34        -2.4750    0.3130   -3.5520 c3        1 MOL     -0.193946
    100 H41        -3.3660   -1.7520   -1.3910 hn        1 MOL      0.211575
    101 H42        -4.1690   -2.6960   -4.0320 h1        1 MOL      0.109667
    102 H43        -3.2770   -0.7210   -5.0520 hc        1 MOL     -0.022552
    103 H44        -1.2140   -2.4880   -3.6890 hc        1 MOL      0.041955
    104 H45        -1.8950   -2.5920   -5.3310 hc        1 MOL      0.041955
    105 H46        -0.7310   -1.2930   -4.8900 hc        1 MOL      0.041955
    106 H47        -1.6270    0.7380   -4.0760 hc        1 MOL      0.041955
    107 H48        -3.3490    0.9740   -3.6330 hc        1 MOL      0.041955
    108 H49        -2.3100    0.2130   -2.4720 hc        1 MOL      0.041955
    109 N10        -5.9210   -1.0370   -2.1650 n         1 MOL     -0.123342
    110 C35        -7.1810   -0.3530   -1.9790 c3        1 MOL      0.041233
    111 C36        -7.0980    0.9640   -1.2020 c         1 MOL      0.543483
    112 O17        -7.9890    1.8510   -1.1920 o         1 MOL     -0.555366
    113 C37        -8.0900   -1.3460   -1.2530 c3        1 MOL     -0.217230
    114 C38        -8.3170   -2.6830   -1.9660 c         1 MOL      0.650703
    115 N11        -8.6140   -2.6740   -3.2460 n         1 MOL     -0.778909
    116 O18        -8.2360   -3.7470   -1.4430 o         1 MOL     -0.567674
    117 H50        -5.6770   -1.5660   -1.3390 hn        1 MOL      0.086485
    118 H51        -7.6820   -0.2330   -2.9360 h1        1 MOL      0.033742
    119 H52        -9.0590   -0.8570   -1.1880 hc        1 MOL      0.076977
    120 H53        -7.7030   -1.5010   -0.2430 hc        1 MOL      0.076977
    121 H54        -8.5930   -1.8270   -3.7780 hn        1 MOL      0.367436
    122 H55        -8.7230   -3.5950   -3.6720 hn        1 MOL      0.367436
    123 N12        -5.9940    1.1000   -0.4460 n         1 MOL     -0.546654
    124 C39        -5.8890    2.1060    0.6060 c3        1 MOL      0.400110
    125 C40        -4.5440    2.8960    0.7180 c         1 MOL      0.295953
    126 O19        -3.5540    2.5480    0.0280 o         1 MOL     -0.446621
    127 C41        -6.1810    1.4590    1.9620 c3        1 MOL     -0.193884
    128 C42        -7.4420    0.7420    2.1760 ca        1 MOL     -0.006009
    129 C43        -8.6620    1.3930    2.1900 ca        1 MOL     -0.042772
    130 C44        -7.3770   -0.6560    2.4410 ca        1 MOL     -0.042772
    131 C45        -9.7950    0.7090    2.4590 ca        1 MOL     -0.298523
    132 C46        -8.5880   -1.3390    2.6780 ca        1 MOL     -0.298523
    133 C47        -9.8400   -0.6630    2.7370 ca        1 MOL      0.354868
    134 O20       -10.9790   -1.2810    3.1580 oh        1 MOL     -0.489585
    135 H56        -5.2420    0.4350   -0.5130 hn        1 MOL      0.283706
    136 H57        -6.7520    2.7660    0.5110 h1        1 MOL      0.002115
    137 H58        -6.0250    2.2540    2.6960 hc        1 MOL      0.064896
    138 H59        -5.3400    0.7660    2.0650 hc        1 MOL      0.064896
    139 H60        -8.6800    2.4410    1.9270 ha        1 MOL      0.103550
    140 H61        -6.4180   -1.1420    2.5380 ha        1 MOL      0.103550
    141 H62       -10.7500    1.1830    2.2850 ha        1 MOL      0.130902
    142 H63        -8.5620   -2.3800    2.9620 ha        1 MOL      0.130902
    143 H64       -11.7670   -0.8510    2.8260 ho        1 MOL      0.353308
    144 N13        -4.4970    3.9530    1.6080 n         1 MOL     -0.584394
    145 C48        -3.2700    4.6590    2.1450 c3        1 MOL      0.420048
    146 C49        -2.1610    5.2690    1.1910 c         1 MOL      0.164781
    147 O21        -1.5850    6.3040    1.5860 o         1 MOL     -0.504623
    148 C50        -2.5740    3.8990    3.3290 c3        1 MOL     -0.075272
    149 C51        -1.8360    2.5920    2.9310 c3        1 MOL      0.024434
    150 C52        -0.9920    1.9290    4.0390 c         1 MOL      0.686027
    151 O22         0.2200    1.8920    3.8610 o         1 MOL     -0.699096
    152 O23        -1.5790    1.3480    4.9850 o         1 MOL     -0.699096
    153 H65        -5.3700    4.2860    2.0000 hn        1 MOL      0.309490
    154 H66        -3.6180    5.5670    2.6520 h1        1 MOL     -0.039716
    155 H67        -3.3460    3.7040    4.0780 hc        1 MOL      0.013266
    156 H68        -1.8410    4.5950    3.7320 hc        1 MOL      0.013266
    157 H69        -1.2660    2.7650    2.0230 hc        1 MOL     -0.040027
    158 H70        -2.6050    1.8880    2.6110 hc        1 MOL     -0.040027
    159 N14        -1.8590    4.7840    0.0090 n         1 MOL     -0.050976
    160 C53        -0.8170    5.3090   -0.8650 c3        1 MOL     -0.139863
    161 C54        -1.3340    6.3420   -1.8570 c         1 MOL      0.389981
    162 O24        -0.5660    6.9700   -2.6120 o         1 MOL     -0.547777
    163 C55        -0.1270    4.1840   -1.7100 c3        1 MOL     -0.010970
    164 C56         0.4610    2.9890   -1.0160 c3        1 MOL      0.396816
    165 C57         1.6690    3.3800   -0.1710 c         1 MOL      0.499798
    166 O25         2.6870    2.7220   -0.3300 o         1 MOL     -0.614553
    167 O26         1.6330    4.1740    0.7730 o         1 MOL     -0.614553
    168 H71        -2.3630    3.9570   -0.2880 hn        1 MOL      0.182533
    169 H72        -0.0080    5.8120   -0.3330 h1        1 MOL      0.163905
    170 H73         0.6570    4.6790   -2.2990 hc        1 MOL     -0.003454
    171 H74        -0.9110    3.8700   -2.3940 hc        1 MOL     -0.003454
    172 H75         0.7730    2.3000   -1.8020 hc        1 MOL     -0.139730
    173 H76        -0.3010    2.4180   -0.4920 hc        1 MOL     -0.139730
    174 N15        -2.6130    6.6010   -1.9300 n         1 MOL     -0.152666
    175 C58        -3.2770    7.3670   -2.9850 c3        1 MOL     -0.113003
    176 H77        -2.5480    7.6400   -3.7490 h1        1 MOL      0.062679
    177 H78        -4.0630    6.7600   -3.4350 h1        1 MOL      0.062679
    178 H79        -3.7120    8.2710   -2.5600 h1        1 MOL      0.062679
    179 H80        -3.1810    6.1390   -1.2390 hn        1 MOL      0.156737
    180 Ca1         4.6500    1.4970    1.0240 Ca        1 MOL      1.753341
    181 O27         5.0110    2.3690    3.4680 oh        1 MOL     -0.844682
    182 H81         4.5550    2.4700    4.2950 ho        1 MOL      0.402340
    183 H82         5.7690    2.9520    3.5320 ho        1 MOL      0.402340
    184 O28         2.2230    1.9240    2.3390 oh        1 MOL     -0.844682
    185 H83         1.5110    1.7820    2.9530 ho        1 MOL      0.402340
    186 H84         1.9590    2.7060    1.8440 ho        1 MOL      0.402340
    187 O29         4.4850    4.4010    1.0030 oh        1 MOL     -0.844682
    188 H85         5.0580    4.8160    0.3650 ho        1 MOL      0.402340
    189 H86         3.7410    4.0820    0.4910 ho        1 MOL      0.402340
    190 O30         6.2420   -0.1540    2.6100 oh        1 MOL     -0.844682
    191 H87         7.0530   -0.5900    2.3620 ho        1 MOL      0.402340
    192 H88         6.2360   -0.1830    3.5760 ho        1 MOL      0.402340
@<TRIPOS>BOND
     1    1    2 1   
     2    1    4 1   
     3    1    5 1   
     4    1    6 1   
     5    2    3 2   
     6    2    7 1   
     7    7    8 1   
     8    7   15 1   
     9    8    9 1   
    10    8   11 1   
    11    8   16 1   
    12    9   10 2   
    13    9   19 1   
    14   11   12 1   
    15   11   17 1   
    16   11   18 1   
    17   12   13 1   
    18   12   14 1   
    19   19   20 1   
    20   19   27 1   
    21   20   21 1   
    22   20   23 1   
    23   20   28 1   
    24   21   22 2   
    25   21   38 1   
    26   23   24 1   
    27   23   25 1   
    28   23   29 1   
    29   24   26 1   
    30   24   30 1   
    31   24   31 1   
    32   25   32 1   
    33   25   33 1   
    34   25   34 1   
    35   26   35 1   
    36   26   36 1   
    37   26   37 1   
    38   38   39 1   
    39   38   46 1   
    40   39   40 1   
    41   39   42 1   
    42   39   47 1   
    43   40   41 2   
    44   40   50 1   
    45   42   43 1   
    46   42   48 1   
    47   42   49 1   
    48   43   44 1   
    49   43   45 1   
    50   50   51 1   
    51   50   54 1   
    52   51   52 1   
    53   51   55 1   
    54   51   56 1   
    55   52   53 2   
    56   52   57 1   
    57   57   58 1   
    58   57   65 1   
    59   58   59 1   
    60   58   61 1   
    61   58   66 1   
    62   59   60 2   
    63   59   69 1   
    64   61   62 1   
    65   61   67 1   
    66   61   68 1   
    67   62   63 1   
    68   62   64 1   
    69   69   70 1   
    70   69   73 1   
    71   70   71 1   
    72   70   74 1   
    73   70   75 1   
    74   71   72 2   
    75   71   76 1   
    76   76   77 1   
    77   76   85 1   
    78   77   78 1   
    79   77   80 1   
    80   77   86 1   
    81   78   79 2   
    82   78   93 1   
    83   80   81 1   
    84   80   87 1   
    85   80   88 1   
    86   81   82 1   
    87   81   89 1   
    88   81   90 1   
    89   82   83 1   
    90   82   84 2   
    91   83   91 1   
    92   83   92 1   
    93   93   94 1   
    94   93  100 1   
    95   94   95 1   
    96   94   97 1   
    97   94  101 1   
    98   95   96 2   
    99   95  109 1   
   100   97   98 1   
   101   97   99 1   
   102   97  102 1   
   103   98  103 1   
   104   98  104 1   
   105   98  105 1   
   106   99  106 1   
   107   99  107 1   
   108   99  108 1   
   109  109  110 1   
   110  109  117 1   
   111  110  111 1   
   112  110  113 1   
   113  110  118 1   
   114  111  112 2   
   115  111  123 1   
   116  113  114 1   
   117  113  119 1   
   118  113  120 1   
   119  114  115 1   
   120  114  116 2   
   121  115  121 1   
   122  115  122 1   
   123  123  124 1   
   124  123  135 1   
   125  124  125 1   
   126  124  127 1   
   127  124  136 1   
   128  125  126 2   
   129  125  144 1   
   130  127  128 1   
   131  127  137 1   
   132  127  138 1   
   133  128  129 ar  
   134  128  130 ar  
   135  129  131 ar  
   136  129  139 1   
   137  130  132 ar  
   138  130  140 1   
   139  131  133 ar  
   140  131  141 1   
   141  132  133 ar  
   142  132  142 1   
   143  133  134 1   
   144  134  143 1   
   145  144  145 1   
   146  144  153 1   
   147  145  146 1   
   148  145  148 1   
   149  145  154 1   
   150  146  147 2   
   151  146  159 1   
   152  148  149 1   
   153  148  155 1   
   154  148  156 1   
   155  149  150 1   
   156  149  157 1   
   157  149  158 1   
   158  150  151 1   
   159  150  152 1   
   160  159  160 1   
   161  159  168 1   
   162  160  161 1   
   163  160  163 1   
   164  160  169 1   
   165  161  162 2   
   166  161  174 1   
   167  163  164 1   
   168  163  170 1   
   169  163  171 1   
   170  164  165 1   
   171  164  172 1   
   172  164  173 1   
   173  165  166 1   
   174  165  167 1   
   175  174  175 1   
   176  174  179 1   
   177  175  176 1   
   178  175  177 1   
   179  175  178 1   
   180  181  182 1   
   181  181  183 1   
   182  184  185 1   
   183  184  186 1   
   184  187  188 1   
   185  187  189 1   
   186  190  191 1   
   187  190  192 1   
@<TRIPOS>SUBSTRUCTURE
     1 MOL         1 TEMP              0 ****  ****    0 ROOT
