@<TRIPOS>MOLECULE
MOL
  182   178     1     0     0
SMALL
resp


@<TRIPOS>ATOM
      1 C1          0.3390   -4.1590    5.7830 c3        1 MOL     -0.358010
      2 C2          0.6010   -3.9620    4.2760 c         1 MOL      0.782791
      3 O1         -0.2430   -4.1520    3.4340 o         1 MOL     -0.613608
      4 H1         -0.5670   -4.7480    5.9200 hc        1 MOL      0.098512
      5 H2          1.1830   -4.6820    6.2330 hc        1 MOL      0.098512
      6 H3          0.2160   -3.1880    6.2610 hc        1 MOL      0.098512
      7 N1          1.8400   -3.6810    3.9640 n         1 MOL     -0.572176
      8 C3          2.2410   -3.2740    2.5820 c3        1 MOL      0.082168
      9 C4          2.7980   -4.4480    1.7380 c         1 MOL      0.483188
     10 O2          3.7120   -5.2390    2.1170 o         1 MOL     -0.547504
     11 C5          3.2860   -2.1750    2.7370 c3        1 MOL     -0.058516
     12 C6          3.6200   -1.3950    1.4900 c         1 MOL      0.643669
     13 O3          3.9370   -0.1980    1.6570 o         1 MOL     -0.683721
     14 O4          3.4130   -1.7880    0.2890 o         1 MOL     -0.683721
     15 H4          2.5100   -3.5200    4.6990 hn        1 MOL      0.323127
     16 H5          1.4310   -2.7850    2.0450 h1        1 MOL     -0.109527
     17 H6          4.1570   -2.7020    3.1100 hc        1 MOL      0.033345
     18 H7          2.9320   -1.3930    3.4190 hc        1 MOL      0.033345
     19 N2          2.2450   -4.5290    0.6000 n         1 MOL     -0.120164
     20 C7          2.4620   -5.4940   -0.4780 c3        1 MOL     -0.111875
     21 C8          3.7530   -5.2740   -1.2660 c         1 MOL      0.543850
     22 O5          4.1640   -6.0640   -2.1080 o         1 MOL     -0.560105
     23 C9          1.2330   -5.6510   -1.4530 c3        1 MOL      0.075670
     24 C10        -0.0540   -6.1160   -0.7640 c3        1 MOL      0.014009
     25 C11        -1.1310   -6.1700   -1.8470 c3        1 MOL      0.046584
     26 C12        -2.3620   -6.9900   -1.4680 c3        1 MOL      0.130179
     27 N3         -3.2980   -7.2140   -2.5940 n4        1 MOL     -0.265077
     28 H8          1.5190   -3.8520    0.4010 hn        1 MOL      0.144524
     29 H9          2.5520   -6.4870   -0.0340 h1        1 MOL      0.088767
     30 H10         1.4850   -6.3440   -2.2540 hc        1 MOL     -0.009432
     31 H11         0.9890   -4.6680   -1.8650 hc        1 MOL     -0.009432
     32 H12        -0.3520   -5.4430    0.0400 hc        1 MOL      0.022308
     33 H13         0.0490   -7.1040   -0.3220 hc        1 MOL      0.022308
     34 H14        -0.7540   -6.5760   -2.7830 hc        1 MOL     -0.013447
     35 H15        -1.4350   -5.1430   -2.0100 hc        1 MOL     -0.013447
     36 H16        -2.9410   -6.4010   -0.7550 hx        1 MOL      0.034394
     37 H17        -2.0500   -7.9040   -0.9590 hx        1 MOL      0.034394
     38 H18        -4.0090   -7.9050   -2.3820 hn        1 MOL      0.242341
     39 H19        -3.6970   -6.3220   -2.8480 hn        1 MOL      0.242341
     40 H20        -2.8900   -7.5900   -3.4300 hn        1 MOL      0.242341
     41 N4          4.3570   -4.1020   -1.0540 n         1 MOL     -0.340601
     42 C13         5.5840   -3.7560   -1.8190 c3        1 MOL      0.233611
     43 C14         6.6040   -3.0450   -1.0270 c         1 MOL      0.260495
     44 O6          7.7980   -3.0070   -1.4090 o         1 MOL     -0.495332
     45 C15         5.1240   -2.8910   -2.9910 c3        1 MOL     -0.350557
     46 C16         4.3610   -1.7220   -2.5470 c         1 MOL      1.058155
     47 O7          4.9170   -0.8470   -1.8490 o         1 MOL     -0.846006
     48 O8          3.2250   -1.4160   -3.0320 o         1 MOL     -0.846006
     49 H21         4.0020   -3.3990   -0.4250 hn        1 MOL      0.060352
     50 H22         6.1230   -4.6160   -2.2170 h1        1 MOL      0.092371
     51 H23         4.5290   -3.4880   -3.6890 hc        1 MOL      0.087370
     52 H24         5.9350   -2.4410   -3.5540 hc        1 MOL      0.087370
     53 N5          6.2200   -2.4970    0.1300 n         1 MOL     -0.129198
     54 C17         7.2310   -1.9090    1.1190 c3        1 MOL     -0.236047
     55 C18         7.5440   -0.4270    0.7880 c         1 MOL      0.610162
     56 O9          8.3660    0.1570    1.4600 o         1 MOL     -0.589848
     57 H25         5.2650   -2.5000    0.4560 hn        1 MOL      0.171437
     58 H26         8.1510   -2.4840    1.0650 h1        1 MOL      0.127518
     59 H27         6.8950   -1.9600    2.1500 h1        1 MOL      0.127518
     60 N6          6.8900    0.2110   -0.1950 n         1 MOL     -0.331402
     61 C19         7.2000    1.6390   -0.5040 c3        1 MOL      0.092570
     62 C20         5.8580    2.4910   -0.4070 c         1 MOL      0.469346
     63 O10         4.7420    1.9150   -0.4440 o         1 MOL     -0.445965
     64 C21         7.7870    1.7530   -1.9270 c3        1 MOL     -0.314290
     65 C22         9.1180    0.9810   -2.0620 c         1 MOL      0.674199
     66 N7         10.2350    1.5650   -1.5500 n         1 MOL     -0.832585
     67 O11         9.1020   -0.0500   -2.7350 o         1 MOL     -0.511524
     68 H28         6.2420   -0.2300   -0.8330 hn        1 MOL      0.340630
     69 H29         7.9590    2.0210    0.1680 h1        1 MOL      0.042603
     70 H30         8.0250    2.8110   -2.0480 hc        1 MOL      0.078380
     71 H31         7.0290    1.4240   -2.6350 hc        1 MOL      0.078380
     72 H32        10.1990    2.3830   -0.9560 hn        1 MOL      0.382994
     73 H33        11.0630    0.9850   -1.5670 hn        1 MOL      0.382994
     74 N8          6.0150    3.8250   -0.4350 n         1 MOL     -0.481767
     75 C23         4.9430    4.8000   -0.7920 c3        1 MOL     -0.038700
     76 C24         3.8740    4.7490    0.2870 c         1 MOL      0.567010
     77 O12         4.1600    4.7400    1.4990 o         1 MOL     -0.487281
     78 H34         6.9350    4.2400   -0.3910 hn        1 MOL      0.332552
     79 H35         4.4750    4.4420   -1.7060 h1        1 MOL      0.073978
     80 H36         5.2540    5.8360   -0.9060 h1        1 MOL      0.073978
     81 N9          2.5990    4.9420   -0.1560 n         1 MOL     -0.579214
     82 C25         1.5010    4.7610    0.7780 c3        1 MOL      0.211978
     83 C26         1.2470    3.2650    0.9860 c         1 MOL      0.607787
     84 O13         2.0450    2.4930    0.5440 o         1 MOL     -0.503041
     85 C27         0.2280    5.4710    0.1970 c3        1 MOL     -0.383745
     86 C28         0.4310    6.9660   -0.0310 ca        1 MOL      0.118656
     87 C29         0.7160    7.8010    1.0520 ca        1 MOL     -0.137442
     88 C30         0.5050    7.5070   -1.3660 ca        1 MOL     -0.137442
     89 C31         1.0450    9.1670    0.8630 ca        1 MOL     -0.281113
     90 C32         0.7930    8.8680   -1.5330 ca        1 MOL     -0.281113
     91 C33         1.1140    9.6970   -0.4400 ca        1 MOL      0.333704
     92 O14         1.6210   10.9000   -0.8150 oh        1 MOL     -0.456766
     93 H37         2.3360    5.0310   -1.1290 hn        1 MOL      0.296456
     94 H38         1.7810    5.1500    1.7600 h1        1 MOL      0.081240
     95 H39        -0.5840    5.3800    0.9240 hc        1 MOL      0.110173
     96 H40        -0.0660    5.0980   -0.7770 hc        1 MOL      0.110173
     97 H41         0.6320    7.3540    2.0370 ha        1 MOL      0.129541
     98 H42         0.3540    6.8860   -2.2300 ha        1 MOL      0.129541
     99 H43         1.3000    9.8920    1.6120 ha        1 MOL      0.160952
    100 H44         0.9010    9.2470   -2.5420 ha        1 MOL      0.160952
    101 H45         1.7510   11.4100   -0.0130 ho        1 MOL      0.363086
    102 N10         0.2860    2.9440    1.8800 n         1 MOL     -0.683885
    103 C34        -0.1470    1.6210    2.4470 c3        1 MOL      0.167617
    104 C35        -0.2860    0.5130    1.3980 c         1 MOL      0.336643
    105 O15         0.6970   -0.0420    0.8570 o         1 MOL     -0.453323
    106 C36         0.8620    1.1770    3.5460 c3        1 MOL      0.245537
    107 C37         0.4890   -0.0730    4.3600 c3        1 MOL      0.080463
    108 C38         1.1010    2.2560    4.6770 c3        1 MOL     -0.492624
    109 C39        -0.8180   -0.0080    5.0930 c3        1 MOL     -0.306599
    110 H46        -0.1630    3.7760    2.2470 hn        1 MOL      0.328419
    111 H47        -1.0960    1.8070    2.9650 h1        1 MOL      0.054989
    112 H48         1.8290    0.9900    3.0750 hc        1 MOL      0.037281
    113 H49         1.3020   -0.3550    5.0290 hc        1 MOL      0.024610
    114 H50         0.3210   -0.8780    3.6380 hc        1 MOL      0.024610
    115 H51         1.7000    3.0360    4.2190 hc        1 MOL      0.120857
    116 H52         0.2170    2.7380    5.0960 hc        1 MOL      0.120857
    117 H53         1.6270    1.8160    5.5250 hc        1 MOL      0.120857
    118 H54        -1.0280   -1.0300    5.4210 hc        1 MOL      0.067725
    119 H55        -0.6860    0.5850    5.9990 hc        1 MOL      0.067725
    120 H56        -1.6060    0.4310    4.4870 hc        1 MOL      0.067725
    121 N11        -1.4630    0.0060    1.1300 n         1 MOL     -0.409065
    122 C40        -1.7260   -1.1050    0.1950 c3        1 MOL      0.007491
    123 C41        -3.1790   -1.1410   -0.4010 c         1 MOL      0.725655
    124 O16        -3.5450   -1.9700   -1.1830 o         1 MOL     -0.566447
    125 C42        -1.2990   -2.3550    0.8360 c3        1 MOL      0.219829
    126 O17        -2.1060   -2.7490    1.9470 oh        1 MOL     -0.614603
    127 H57        -2.2330    0.4120    1.6430 hn        1 MOL      0.303654
    128 H58        -1.0380   -0.9440   -0.6450 h1        1 MOL     -0.051356
    129 H59        -0.2430   -2.3820    1.0890 h1        1 MOL      0.034062
    130 H60        -1.3700   -3.1830    0.1240 h1        1 MOL      0.034062
    131 H61        -1.4930   -3.1890    2.5370 ho        1 MOL      0.380051
    132 N12        -4.0230   -0.2060   -0.0010 n         1 MOL     -0.528012
    133 C43        -5.3560   -0.1790   -0.4210 c3        1 MOL      0.155042
    134 C44        -5.5630    0.5040   -1.7230 c         1 MOL      0.571533
    135 O18        -4.7860    1.2850   -2.1870 o         1 MOL     -0.571247
    136 C45        -6.1390    0.6270    0.6560 c3        1 MOL     -0.135519
    137 H62        -3.7440    0.4710    0.6920 hn        1 MOL      0.242775
    138 H63        -5.7570   -1.1950   -0.4320 h1        1 MOL      0.077974
    139 H64        -5.7790    0.1960    1.5930 hc        1 MOL      0.048507
    140 H65        -5.8600    1.6790    0.6820 hc        1 MOL      0.048507
    141 H66        -7.2110    0.4930    0.5630 hc        1 MOL      0.048507
    142 N13        -6.6940    0.4020   -2.4890 n         1 MOL     -0.592687
    143 C46        -7.9080   -0.3740   -2.2330 c3        1 MOL      0.314030
    144 C47        -9.1500    0.4580   -2.6470 c         1 MOL      0.405835
    145 O19        -9.0350    1.0910   -3.6680 o         1 MOL     -0.525752
    146 C48        -7.8080   -1.7170   -2.9500 c3        1 MOL     -0.319694
    147 H67        -6.6300    1.0270   -3.2780 hn        1 MOL      0.335527
    148 H68        -7.9430   -0.6420   -1.1770 h1        1 MOL      0.002230
    149 H69        -7.6440   -1.5140   -4.0100 hc        1 MOL      0.086951
    150 H70        -6.9650   -2.3510   -2.7020 hc        1 MOL      0.086951
    151 H71        -8.7680   -2.2310   -2.8960 hc        1 MOL      0.086951
    152 N14       -10.3440    0.5100   -2.0380 n         1 MOL     -0.324755
    153 C49       -10.6470    0.1800   -0.6230 c3        1 MOL     -0.332453
    154 C50        -9.9280    1.1330    0.3780 c         1 MOL      0.577399
    155 O20        -9.4210    0.6830    1.3820 o         1 MOL     -0.525282
    156 C51       -12.2070    0.1670   -0.4480 c3        1 MOL      0.337396
    157 C52       -12.5410   -0.6350    0.7940 c3        1 MOL     -0.394585
    158 C53       -14.0380   -0.7750    0.7890 c         1 MOL      0.757651
    159 O21       -14.7520    0.0650    1.3970 o         1 MOL     -0.665386
    160 O22       -14.6040   -1.6400    0.1350 o         1 MOL     -0.665386
    161 H72       -11.0630    1.0310   -2.5210 hn        1 MOL      0.262396
    162 H73       -10.2420   -0.8120   -0.4360 h1        1 MOL      0.141991
    163 H74       -12.6730   -0.3280   -1.2940 hc        1 MOL     -0.028001
    164 H75       -12.6350    1.1620   -0.4080 hc        1 MOL     -0.028001
    165 H76       -12.2380   -0.0580    1.6620 hc        1 MOL      0.077455
    166 H77       -12.0720   -1.6160    0.7110 hc        1 MOL      0.077455
    167 N15        -9.9140    2.4100    0.0770 n         1 MOL     -0.295406
    168 C54        -9.1970    3.4280    0.8970 c3        1 MOL     -0.253250
    169 H78        -9.6380    3.4660    1.8930 h1        1 MOL      0.116219
    170 H79        -8.1440    3.1560    0.9760 h1        1 MOL      0.116219
    171 H80        -9.2860    4.4060    0.4240 h1        1 MOL      0.116219
    172 H81       -10.4000    2.8280   -0.7030 hn        1 MOL      0.272599
    173 Ca1         2.6520    0.3430   -0.9020 Ca        1 MOL      1.719362
    174 O23         2.8460    1.9330   -2.9080 oh        1 MOL     -0.845500
    175 H82         3.6020    1.8780   -3.4850 ho        1 MOL      0.421795
    176 H83         2.6660    2.8650   -2.8180 ho        1 MOL      0.421795
    177 O24         1.1310   -1.9990   -1.7480 oh        1 MOL     -0.845500
    178 H84         0.3120   -2.2190   -2.1930 ho        1 MOL      0.421795
    179 H85         1.7960   -2.0570   -2.4330 ho        1 MOL      0.421795
    180 O25         0.2960    1.2370   -1.6570 oh        1 MOL     -0.845500
    181 H86        -0.5680    0.8480   -1.6850 ho        1 MOL      0.421795
    182 H87         0.2600    1.9590   -2.2850 ho        1 MOL      0.421795
@<TRIPOS>BOND
     1    1    2 1   
     2    1    4 1   
     3    1    5 1   
     4    1    6 1   
     5    2    3 2   
     6    2    7 1   
     7    7    8 1   
     8    7   15 1   
     9    8    9 1   
    10    8   11 1   
    11    8   16 1   
    12    9   10 2   
    13    9   19 1   
    14   11   12 1   
    15   11   17 1   
    16   11   18 1   
    17   12   13 1   
    18   12   14 1   
    19   19   20 1   
    20   19   28 1   
    21   20   21 1   
    22   20   23 1   
    23   20   29 1   
    24   21   22 2   
    25   21   41 1   
    26   23   24 1   
    27   23   30 1   
    28   23   31 1   
    29   24   25 1   
    30   24   32 1   
    31   24   33 1   
    32   25   26 1   
    33   25   34 1   
    34   25   35 1   
    35   26   27 1   
    36   26   36 1   
    37   26   37 1   
    38   27   38 1   
    39   27   39 1   
    40   27   40 1   
    41   41   42 1   
    42   41   49 1   
    43   42   43 1   
    44   42   45 1   
    45   42   50 1   
    46   43   44 2   
    47   43   53 1   
    48   45   46 1   
    49   45   51 1   
    50   45   52 1   
    51   46   47 1   
    52   46   48 1   
    53   53   54 1   
    54   53   57 1   
    55   54   55 1   
    56   54   58 1   
    57   54   59 1   
    58   55   56 2   
    59   55   60 1   
    60   60   61 1   
    61   60   68 1   
    62   61   62 1   
    63   61   64 1   
    64   61   69 1   
    65   62   63 2   
    66   62   74 1   
    67   64   65 1   
    68   64   70 1   
    69   64   71 1   
    70   65   66 1   
    71   65   67 2   
    72   66   72 1   
    73   66   73 1   
    74   74   75 1   
    75   74   78 1   
    76   75   76 1   
    77   75   79 1   
    78   75   80 1   
    79   76   77 2   
    80   76   81 1   
    81   81   82 1   
    82   81   93 1   
    83   82   83 1   
    84   82   85 1   
    85   82   94 1   
    86   83   84 2   
    87   83  102 1   
    88   85   86 1   
    89   85   95 1   
    90   85   96 1   
    91   86   87 ar  
    92   86   88 ar  
    93   87   89 ar  
    94   87   97 1   
    95   88   90 ar  
    96   88   98 1   
    97   89   91 ar  
    98   89   99 1   
    99   90   91 ar  
   100   90  100 1   
   101   91   92 1   
   102   92  101 1   
   103  102  103 1   
   104  102  110 1   
   105  103  104 1   
   106  103  106 1   
   107  103  111 1   
   108  104  105 2   
   109  104  121 1   
   110  106  107 1   
   111  106  108 1   
   112  106  112 1   
   113  107  109 1   
   114  107  113 1   
   115  107  114 1   
   116  108  115 1   
   117  108  116 1   
   118  108  117 1   
   119  109  118 1   
   120  109  119 1   
   121  109  120 1   
   122  121  122 1   
   123  121  127 1   
   124  122  123 1   
   125  122  125 1   
   126  122  128 1   
   127  123  124 2   
   128  123  132 1   
   129  125  126 1   
   130  125  129 1   
   131  125  130 1   
   132  126  131 1   
   133  132  133 1   
   134  132  137 1   
   135  133  134 1   
   136  133  136 1   
   137  133  138 1   
   138  134  135 2   
   139  134  142 1   
   140  136  139 1   
   141  136  140 1   
   142  136  141 1   
   143  142  143 1   
   144  142  147 1   
   145  143  144 1   
   146  143  146 1   
   147  143  148 1   
   148  144  145 2   
   149  144  152 1   
   150  146  149 1   
   151  146  150 1   
   152  146  151 1   
   153  152  153 1   
   154  152  161 1   
   155  153  154 1   
   156  153  156 1   
   157  153  162 1   
   158  154  155 2   
   159  154  167 1   
   160  156  157 1   
   161  156  163 1   
   162  156  164 1   
   163  157  158 1   
   164  157  165 1   
   165  157  166 1   
   166  158  159 1   
   167  158  160 1   
   168  167  168 1   
   169  167  172 1   
   170  168  169 1   
   171  168  170 1   
   172  168  171 1   
   173  174  175 1   
   174  174  176 1   
   175  177  178 1   
   176  177  179 1   
   177  180  181 1   
   178  180  182 1   
@<TRIPOS>SUBSTRUCTURE
     1 MOL         1 TEMP              0 ****  ****    0 ROOT
