@<TRIPOS>MOLECULE
MOL
  189   185     1     0     0
SMALL
resp


@<TRIPOS>ATOM
      1 C1          5.0660    4.5370   -2.7070 c3        1 MOL     -0.446216
      2 C2          5.7210    3.5010   -1.6910 c         1 MOL      0.847222
      3 O1          5.0080    2.9710   -0.8950 o         1 MOL     -0.749429
      4 H1          5.3980    5.5450   -2.4620 hc        1 MOL      0.116907
      5 H2          5.3720    4.2920   -3.7240 hc        1 MOL      0.116907
      6 H3          3.9800    4.4840   -2.6320 hc        1 MOL      0.116907
      7 N1          6.9500    3.1470   -1.8170 n         1 MOL     -0.736806
      8 C3          7.5190    1.8640   -1.2820 c3        1 MOL      0.373525
      9 C4          6.5410    0.6970   -1.3010 c         1 MOL      0.098863
     10 O2          5.9150    0.3520   -0.3010 o         1 MOL     -0.457596
     11 C5          8.3760    1.9330   -0.0110 c3        1 MOL     -0.022209
     12 C6          8.0110    2.7980    1.1300 c         1 MOL      0.755572
     13 O3          6.9180    2.4920    1.7480 o         1 MOL     -0.735547
     14 O4          8.6990    3.7800    1.4610 o         1 MOL     -0.735547
     15 H4          7.5650    3.6050   -2.4790 hn        1 MOL      0.342390
     16 H5          8.2260    1.5510   -2.0530 h1        1 MOL      0.003324
     17 H6          9.2990    2.3690   -0.3900 hc        1 MOL     -0.019029
     18 H7          8.5840    0.9360    0.3680 hc        1 MOL     -0.019029
     19 N2          6.3250    0.1640   -2.4930 n         1 MOL     -0.252963
     20 C7          5.2950   -0.8320   -2.9560 c3        1 MOL     -0.016674
     21 C8          5.6660   -2.1510   -2.3360 c         1 MOL      0.362040
     22 O5          5.8610   -3.1130   -3.0610 o         1 MOL     -0.554765
     23 C9          3.8120   -0.3970   -2.6460 c3        1 MOL      0.225736
     24 C10         2.7330   -1.5280   -2.9560 c3        1 MOL     -0.441625
     25 C11         3.5030    0.9350   -3.3520 c3        1 MOL     -0.051267
     26 C12         2.6660   -2.0580   -4.4690 c3        1 MOL     -0.072855
     27 H8          6.8100    0.5860   -3.2700 hn        1 MOL      0.251452
     28 H9          5.4030   -0.9270   -4.0400 h1        1 MOL      0.069945
     29 H10         3.7250   -0.1670   -1.5830 hc        1 MOL     -0.061168
     30 H11         1.7120   -1.1900   -2.8190 hc        1 MOL      0.180517
     31 H12         3.1610   -2.3630   -2.4050 hc        1 MOL      0.180517
     32 H13         3.5070    0.7410   -4.4190 hc        1 MOL     -0.004791
     33 H14         2.5330    1.3380   -3.0820 hc        1 MOL     -0.004791
     34 H15         4.2370    1.7080   -3.1010 hc        1 MOL     -0.004791
     35 H16         2.1340   -1.3350   -5.0830 hc        1 MOL      0.025449
     36 H17         3.6560   -2.2130   -4.9120 hc        1 MOL      0.025449
     37 H18         2.1140   -2.9780   -4.6240 hc        1 MOL      0.025449
     38 N3          5.6340   -2.3170   -1.0500 n         1 MOL     -0.000852
     39 C13         6.2110   -3.5600   -0.3890 c3        1 MOL      0.058736
     40 C14         5.2970   -4.8350   -0.3760 c         1 MOL      0.559025
     41 O6          5.7230   -5.8700   -0.9790 o         1 MOL     -0.577867
     42 C15         6.8310   -3.1340    0.9020 c3        1 MOL     -0.095816
     43 C16         8.0020   -2.1540    0.8060 c         1 MOL      0.688937
     44 O7          8.3800   -1.6960    1.8780 o         1 MOL     -0.705403
     45 O8          8.5080   -1.9900   -0.3290 o         1 MOL     -0.705403
     46 H19         5.6320   -1.4800   -0.4760 hn        1 MOL      0.170799
     47 H20         7.0420   -3.9680   -0.9710 h1        1 MOL      0.021701
     48 H21         7.1890   -3.9910    1.4800 hc        1 MOL      0.021112
     49 H22         5.9660   -2.6900    1.3920 hc        1 MOL      0.021112
     50 N4          4.0470   -4.8540    0.1550 n         1 MOL     -0.571560
     51 C17         3.4080   -3.8680    0.9830 c3        1 MOL      0.126167
     52 C18         3.8970   -3.8820    2.3970 c         1 MOL      0.505219
     53 O9          4.8510   -4.5990    2.7870 o         1 MOL     -0.547419
     54 H23         3.5770   -5.7480    0.1950 hn        1 MOL      0.299026
     55 H24         2.3440   -4.0830    0.9550 h1        1 MOL      0.040040
     56 H25         3.5770   -2.8730    0.5740 h1        1 MOL      0.040040
     57 N5          3.2060   -3.0970    3.2290 n         1 MOL     -0.564530
     58 C19         2.0800   -2.1900    2.9840 c3        1 MOL      0.307837
     59 C20         2.4610   -1.0920    1.9910 c         1 MOL      0.424921
     60 O10         3.6280   -0.7790    1.7880 o         1 MOL     -0.547733
     61 C21         1.5700   -1.6030    4.2700 c3        1 MOL     -0.318800
     62 C22         0.8050   -2.6230    5.1420 c         1 MOL      0.719151
     63 O11         0.2060   -3.6660    4.6920 o         1 MOL     -0.704004
     64 O12         0.5910   -2.3520    6.3320 o         1 MOL     -0.704004
     65 H26         3.5190   -3.1940    4.1900 hn        1 MOL      0.335933
     66 H27         1.2350   -2.7090    2.5190 h1        1 MOL     -0.144931
     67 H28         0.8730   -0.8170    3.9960 hc        1 MOL      0.059988
     68 H29         2.4270   -1.1430    4.7660 hc        1 MOL      0.059988
     69 N6          1.5110   -0.5770    1.2530 n         1 MOL     -0.023931
     70 C23         0.1160   -0.9910    1.1400 c3        1 MOL     -0.315260
     71 C24        -0.1970   -2.1020    0.1260 c         1 MOL      0.656338
     72 O13         0.4760   -2.3280   -0.8680 o         1 MOL     -0.580866
     73 H30         1.8470    0.2130    0.7330 hn        1 MOL      0.062659
     74 H31        -0.5380   -0.2000    0.7710 h1        1 MOL      0.111273
     75 H32        -0.2690   -1.3980    2.0780 h1        1 MOL      0.111273
     76 N7         -1.2070   -2.8890    0.3830 n         1 MOL     -0.331801
     77 C25        -1.5030   -4.0750   -0.4580 c3        1 MOL     -0.084155
     78 C26        -1.9280   -3.7250   -1.8480 c         1 MOL      0.590695
     79 O14        -1.6560   -4.5340   -2.7430 o         1 MOL     -0.540841
     80 C27        -2.4480   -5.1020    0.2390 c3        1 MOL      0.087726
     81 C28        -3.9010   -4.7170    0.5900 c3        1 MOL      0.069079
     82 C29        -4.5690   -5.9350    1.2160 c         1 MOL      0.553570
     83 N8         -4.2830   -6.1020    2.4680 n         1 MOL     -0.784156
     84 O15        -5.4190   -6.5430    0.5860 o         1 MOL     -0.542052
     85 H33        -1.7760   -2.6560    1.1880 hn        1 MOL      0.243682
     86 H34        -0.5480   -4.5770   -0.5680 h1        1 MOL      0.100676
     87 H35        -2.0410   -5.2650    1.2310 hc        1 MOL      0.007411
     88 H36        -2.4580   -6.0030   -0.3770 hc        1 MOL      0.007411
     89 H37        -4.3780   -4.4950   -0.3670 hc        1 MOL     -0.058293
     90 H38        -3.9300   -3.9300    1.3420 hc        1 MOL     -0.058293
     91 H39        -3.5060   -5.7070    2.9780 hn        1 MOL      0.373260
     92 H40        -4.6950   -6.8510    2.9990 hn        1 MOL      0.373260
     93 N9         -2.6390   -2.5820   -2.0320 n         1 MOL     -0.158427
     94 C30        -3.2230   -2.2360   -3.3370 c3        1 MOL     -0.282650
     95 C31        -4.6930   -2.0260   -3.3820 c         1 MOL      0.541652
     96 O16        -5.3120   -2.1820   -4.4180 o         1 MOL     -0.517534
     97 C32        -2.4440   -1.0560   -4.0210 c3        1 MOL      0.115969
     98 C33        -1.0220   -1.3500   -4.4090 c3        1 MOL     -0.060828
     99 C34        -2.4000    0.1720   -3.1840 c3        1 MOL     -0.060828
    100 H41        -2.7170   -1.9800   -1.2250 hn        1 MOL      0.138272
    101 H42        -3.0780   -3.0760   -4.0190 h1        1 MOL      0.139154
    102 H43        -2.9850   -0.7460   -4.9110 hc        1 MOL      0.008957
    103 H44        -0.5050   -0.4050   -4.5120 hc        1 MOL      0.012409
    104 H45        -0.6000   -2.0350   -3.6650 hc        1 MOL      0.012409
    105 H46        -0.9610   -1.7620   -5.4130 hc        1 MOL      0.012409
    106 H47        -1.7320   -0.0130   -2.3480 hc        1 MOL      0.012409
    107 H48        -2.1500    1.0570   -3.7740 hc        1 MOL      0.012409
    108 H49        -3.3930    0.4270   -2.8170 hc        1 MOL      0.012409
    109 N10        -5.3260   -1.6540   -2.2570 n         1 MOL     -0.164134
    110 C35        -6.6290   -0.9450   -2.1020 c3        1 MOL      0.078305
    111 C36        -6.5310    0.4940   -1.6330 c         1 MOL      0.449148
    112 O17        -7.2900    1.4200   -2.0420 o         1 MOL     -0.564701
    113 C37        -7.5740   -1.7540   -1.2340 c3        1 MOL     -0.245948
    114 C38        -7.9670   -3.1560   -1.6140 c         1 MOL      0.556911
    115 N11        -7.5150   -4.1510   -0.8330 n         1 MOL     -0.708909
    116 O18        -8.5690   -3.4070   -2.6640 o         1 MOL     -0.523984
    117 H50        -4.8140   -1.7680   -1.3920 hn        1 MOL      0.093923
    118 H51        -7.1030   -0.8330   -3.0770 h1        1 MOL      0.064591
    119 H52        -8.4630   -1.1710   -1.0040 hc        1 MOL      0.087498
    120 H53        -7.0870   -1.8630   -0.2650 hc        1 MOL      0.087498
    121 H54        -7.2390   -3.9780    0.1230 hn        1 MOL      0.347768
    122 H55        -7.7870   -5.0920   -1.1000 hn        1 MOL      0.347768
    123 N12        -5.6930    0.8210   -0.6880 n         1 MOL     -0.301864
    124 C39        -5.7420    2.0740    0.1140 c3        1 MOL      0.090696
    125 C40        -4.3580    2.7030    0.2460 c         1 MOL      0.392438
    126 O19        -3.3650    1.9940    0.0920 o         1 MOL     -0.518934
    127 C41        -6.2370    1.7350    1.5470 c3        1 MOL     -0.033804
    128 C42        -7.5970    1.1020    1.6230 ca        1 MOL     -0.010026
    129 C43        -8.7780    1.8790    1.3810 ca        1 MOL     -0.133677
    130 C44        -7.6640   -0.2290    2.1300 ca        1 MOL     -0.133677
    131 C45       -10.0350    1.2620    1.5180 ca        1 MOL     -0.244366
    132 C46        -8.9230   -0.7750    2.3380 ca        1 MOL     -0.244366
    133 C47       -10.1120   -0.0280    2.0780 ca        1 MOL      0.323772
    134 O20       -11.2520   -0.6330    2.2340 oh        1 MOL     -0.498428
    135 H56        -4.9990    0.1050   -0.5570 hn        1 MOL      0.235220
    136 H57        -6.4150    2.8340   -0.2820 h1        1 MOL      0.074973
    137 H58        -6.3120    2.6900    2.0750 hc        1 MOL      0.056085
    138 H59        -5.5880    1.0540    2.0910 hc        1 MOL      0.056085
    139 H60        -8.6860    2.8450    0.9270 ha        1 MOL      0.135701
    140 H61        -6.7680   -0.8140    2.3210 ha        1 MOL      0.135701
    141 H62       -10.9720    1.7930    1.4540 ha        1 MOL      0.122780
    142 H63        -9.1080   -1.7470    2.7760 ha        1 MOL      0.122780
    143 H64       -12.0110   -0.1830    1.8510 ho        1 MOL      0.382504
    144 N13        -4.3220    3.9410    0.6980 n         1 MOL     -0.443947
    145 C48        -3.2440    4.8230    1.0840 c3        1 MOL      0.044724
    146 C49        -2.1080    5.1530    0.0440 c         1 MOL      0.535448
    147 O21        -1.5710    6.2940    0.0550 o         1 MOL     -0.526222
    148 C50        -2.4970    4.1440    2.2500 c3        1 MOL     -0.129371
    149 C51        -3.3750    3.9450    3.5120 c3        1 MOL     -0.071434
    150 C52        -3.7500    5.1910    4.2900 c         1 MOL      0.686797
    151 O22        -4.5700    5.9900    3.7490 o         1 MOL     -0.724774
    152 O23        -3.2860    5.3370    5.4180 o         1 MOL     -0.724774
    153 H65        -5.2350    4.3630    0.8040 hn        1 MOL      0.301562
    154 H66        -3.7040    5.7700    1.3680 h1        1 MOL      0.067820
    155 H67        -1.6550    4.7740    2.5040 hc        1 MOL      0.092875
    156 H68        -2.0140    3.2010    1.9830 hc        1 MOL      0.092875
    157 H69        -2.8290    3.3290    4.2310 hc        1 MOL     -0.014798
    158 H70        -4.2800    3.3720    3.2720 hc        1 MOL     -0.014798
    159 N14        -1.8750    4.2830   -0.9170 n         1 MOL     -0.633704
    160 C53        -0.6470    4.4220   -1.6950 c3        1 MOL     -0.050380
    161 C54        -0.8100    5.3100   -2.9020 c         1 MOL      0.492772
    162 O24         0.1880    5.8150   -3.4450 o         1 MOL     -0.554936
    163 C55        -0.1180    3.0210   -2.1100 c3        1 MOL     -0.178584
    164 C56         0.0600    2.0150   -0.9350 c3        1 MOL      0.558695
    165 C57         0.9900    2.4920    0.1540 c         1 MOL      0.540502
    166 O25         2.1380    2.0110    0.3780 o         1 MOL     -0.665471
    167 O26         0.5420    3.3910    0.9340 o         1 MOL     -0.665471
    168 H71        -2.1640    3.3340   -0.6790 hn        1 MOL      0.401352
    169 H72         0.1800    4.8400   -1.1140 h1        1 MOL      0.152735
    170 H73         0.8490    3.1320   -2.6010 hc        1 MOL      0.047999
    171 H74        -0.8370    2.5940   -2.8110 hc        1 MOL      0.047999
    172 H75         0.4870    1.0730   -1.2940 hc        1 MOL     -0.182089
    173 H76        -0.9300    1.8180   -0.5260 hc        1 MOL     -0.182089
    174 N15        -2.0670    5.3640   -3.4060 n         1 MOL     -0.157884
    175 C58        -2.4250    6.0760   -4.6260 c3        1 MOL     -0.367740
    176 H77        -2.0920    5.5020   -5.4910 h1        1 MOL      0.129024
    177 H78        -3.5060    6.2040   -4.6690 h1        1 MOL      0.129024
    178 H79        -1.9420    7.0530   -4.6320 h1        1 MOL      0.129024
    179 H80        -2.7310    4.8120   -2.8860 hn        1 MOL      0.225586
    180 Ca1         4.4560    1.8080    1.3950 Ca        1 MOL      1.800969
    181 O27         4.2630    4.4470    1.9400 oh        1 MOL     -0.885332
    182 H81         3.3230    4.6540    1.9930 ho        1 MOL      0.430335
    183 H82         4.6270    5.1240    1.3680 ho        1 MOL      0.430335
    184 O28         5.8110    0.7470    3.5660 oh        1 MOL     -0.885332
    185 H83         5.3670    1.1030    4.3440 ho        1 MOL      0.430335
    186 H84         6.4440    0.1310    3.9150 ho        1 MOL      0.430335
    187 O29         2.7720    1.7140    3.5690 oh        1 MOL     -0.885332
    188 H85         2.7870    2.2280    4.3770 ho        1 MOL      0.430335
    189 H86         1.8410    1.6610    3.3420 ho        1 MOL      0.430335
@<TRIPOS>BOND
     1    1    2 1   
     2    1    4 1   
     3    1    5 1   
     4    1    6 1   
     5    2    3 2   
     6    2    7 1   
     7    7    8 1   
     8    7   15 1   
     9    8    9 1   
    10    8   11 1   
    11    8   16 1   
    12    9   10 2   
    13    9   19 1   
    14   11   12 1   
    15   11   17 1   
    16   11   18 1   
    17   12   13 1   
    18   12   14 1   
    19   19   20 1   
    20   19   27 1   
    21   20   21 1   
    22   20   23 1   
    23   20   28 1   
    24   21   22 2   
    25   21   38 1   
    26   23   24 1   
    27   23   25 1   
    28   23   29 1   
    29   24   26 1   
    30   24   30 1   
    31   24   31 1   
    32   25   32 1   
    33   25   33 1   
    34   25   34 1   
    35   26   35 1   
    36   26   36 1   
    37   26   37 1   
    38   38   39 1   
    39   38   46 1   
    40   39   40 1   
    41   39   42 1   
    42   39   47 1   
    43   40   41 2   
    44   40   50 1   
    45   42   43 1   
    46   42   48 1   
    47   42   49 1   
    48   43   44 1   
    49   43   45 1   
    50   50   51 1   
    51   50   54 1   
    52   51   52 1   
    53   51   55 1   
    54   51   56 1   
    55   52   53 2   
    56   52   57 1   
    57   57   58 1   
    58   57   65 1   
    59   58   59 1   
    60   58   61 1   
    61   58   66 1   
    62   59   60 2   
    63   59   69 1   
    64   61   62 1   
    65   61   67 1   
    66   61   68 1   
    67   62   63 1   
    68   62   64 1   
    69   69   70 1   
    70   69   73 1   
    71   70   71 1   
    72   70   74 1   
    73   70   75 1   
    74   71   72 2   
    75   71   76 1   
    76   76   77 1   
    77   76   85 1   
    78   77   78 1   
    79   77   80 1   
    80   77   86 1   
    81   78   79 2   
    82   78   93 1   
    83   80   81 1   
    84   80   87 1   
    85   80   88 1   
    86   81   82 1   
    87   81   89 1   
    88   81   90 1   
    89   82   83 1   
    90   82   84 2   
    91   83   91 1   
    92   83   92 1   
    93   93   94 1   
    94   93  100 1   
    95   94   95 1   
    96   94   97 1   
    97   94  101 1   
    98   95   96 2   
    99   95  109 1   
   100   97   98 1   
   101   97   99 1   
   102   97  102 1   
   103   98  103 1   
   104   98  104 1   
   105   98  105 1   
   106   99  106 1   
   107   99  107 1   
   108   99  108 1   
   109  109  110 1   
   110  109  117 1   
   111  110  111 1   
   112  110  113 1   
   113  110  118 1   
   114  111  112 2   
   115  111  123 1   
   116  113  114 1   
   117  113  119 1   
   118  113  120 1   
   119  114  115 1   
   120  114  116 2   
   121  115  121 1   
   122  115  122 1   
   123  123  124 1   
   124  123  135 1   
   125  124  125 1   
   126  124  127 1   
   127  124  136 1   
   128  125  126 2   
   129  125  144 1   
   130  127  128 1   
   131  127  137 1   
   132  127  138 1   
   133  128  129 ar  
   134  128  130 ar  
   135  129  131 ar  
   136  129  139 1   
   137  130  132 ar  
   138  130  140 1   
   139  131  133 ar  
   140  131  141 1   
   141  132  133 ar  
   142  132  142 1   
   143  133  134 1   
   144  134  143 1   
   145  144  145 1   
   146  144  153 1   
   147  145  146 1   
   148  145  148 1   
   149  145  154 1   
   150  146  147 2   
   151  146  159 1   
   152  148  149 1   
   153  148  155 1   
   154  148  156 1   
   155  149  150 1   
   156  149  157 1   
   157  149  158 1   
   158  150  151 1   
   159  150  152 1   
   160  159  160 1   
   161  159  168 1   
   162  160  161 1   
   163  160  163 1   
   164  160  169 1   
   165  161  162 2   
   166  161  174 1   
   167  163  164 1   
   168  163  170 1   
   169  163  171 1   
   170  164  165 1   
   171  164  172 1   
   172  164  173 1   
   173  165  166 1   
   174  165  167 1   
   175  174  175 1   
   176  174  179 1   
   177  175  176 1   
   178  175  177 1   
   179  175  178 1   
   180  181  182 1   
   181  181  183 1   
   182  184  185 1   
   183  184  186 1   
   184  187  188 1   
   185  187  189 1   
@<TRIPOS>SUBSTRUCTURE
     1 MOL         1 TEMP              0 ****  ****    0 ROOT
