@<TRIPOS>MOLECULE
MOL
  179   176     1     0     0
SMALL
resp


@<TRIPOS>ATOM
      1 C1         -3.3610   -0.6090    5.8540 c3        1 MOL     -0.411438
      2 C2         -3.0020   -0.8880    4.4260 c         1 MOL      0.754332
      3 O1         -3.7430   -0.6530    3.4450 o         1 MOL     -0.598977
      4 H1         -2.4560   -0.3860    6.4190 hc        1 MOL      0.115734
      5 H2         -4.0370    0.2440    5.9000 hc        1 MOL      0.115734
      6 H3         -3.8500   -1.4830    6.2840 hc        1 MOL      0.115734
      7 N1         -1.7810   -1.4330    4.2200 n         1 MOL     -0.573983
      8 C3         -1.1640   -1.6600    2.8560 c3        1 MOL     -0.057548
      9 C4         -1.9080   -2.8220    2.1610 c         1 MOL      0.624648
     10 O2         -1.8780   -3.9900    2.6390 o         1 MOL     -0.564179
     11 C5          0.3410   -2.0120    3.1960 c3        1 MOL      0.026333
     12 C6          1.1320   -2.1090    1.8630 c         1 MOL      0.648827
     13 O3          2.3920   -2.0500    1.7870 o         1 MOL     -0.696139
     14 O4          0.4690   -2.1320    0.7770 o         1 MOL     -0.696139
     15 H4         -1.2260   -1.5580    5.0530 hn        1 MOL      0.311753
     16 H5         -1.2040   -0.7810    2.2280 h1        1 MOL     -0.026287
     17 H6          0.5270   -2.9100    3.7730 hc        1 MOL      0.022727
     18 H7          0.8170   -1.1650    3.6980 hc        1 MOL      0.022727
     19 N2         -2.6100   -2.5260    1.0280 n         1 MOL     -0.376964
     20 C7         -3.3290   -3.5320    0.2260 c3        1 MOL     -0.021507
     21 C8         -2.5420   -4.5430   -0.6010 c         1 MOL      0.447629
     22 O5         -3.1720   -5.4800   -1.1610 o         1 MOL     -0.561000
     23 C9         -4.3880   -2.7990   -0.5500 c3        1 MOL      0.067951
     24 C10        -5.8190   -3.1330    0.0320 c3        1 MOL     -0.102714
     25 C11        -6.8540   -2.3080   -0.8350 c3        1 MOL      0.014655
     26 C12        -8.2320   -2.7650   -0.3060 c3        1 MOL      0.142046
     27 N3         -9.2840   -2.1360   -1.0610 n4        1 MOL     -0.471801
     28 H8         -2.3890   -1.6250    0.6310 hn        1 MOL      0.299481
     29 H9         -3.8450   -4.0980    0.9950 h1        1 MOL      0.118391
     30 H10        -4.2850   -3.0550   -1.6040 hc        1 MOL      0.002993
     31 H11        -4.2750   -1.7230   -0.4260 hc        1 MOL      0.002993
     32 H12        -5.8840   -3.0190    1.1050 hc        1 MOL      0.047967
     33 H13        -5.8920   -4.2140   -0.0790 hc        1 MOL      0.047967
     34 H14        -6.8500   -2.5340   -1.9000 hc        1 MOL     -0.005178
     35 H15        -6.7500   -1.2350   -0.7140 hc        1 MOL     -0.005178
     36 H16        -8.3810   -2.3870    0.6980 hx        1 MOL      0.041187
     37 H17        -8.3310   -3.8480   -0.3580 hx        1 MOL      0.041187
     38 H18        -9.1560   -2.3550   -2.0450 hn        1 MOL      0.326049
     39 H19       -10.1500   -2.6080   -0.8380 hn        1 MOL      0.326049
     40 H20        -9.4290   -1.1780   -0.7870 hn        1 MOL      0.326049
     41 N4         -1.2550   -4.3190   -0.7600 n         1 MOL     -0.323436
     42 C13        -0.3290   -5.1820   -1.5980 c3        1 MOL      0.148558
     43 C14         0.8030   -5.7720   -0.7800 c         1 MOL      0.464937
     44 O6          1.3030   -6.7930   -1.1710 o         1 MOL     -0.552163
     45 C15         0.1810   -4.3600   -2.7900 c3        1 MOL     -0.127301
     46 C16         0.8830   -3.0660   -2.4400 c         1 MOL      0.715958
     47 O7          2.0970   -3.0710   -2.0990 o         1 MOL     -0.730379
     48 O8          0.2880   -2.0040   -2.3560 o         1 MOL     -0.730379
     49 H21        -0.9470   -3.4200   -0.4250 hn        1 MOL      0.153990
     50 H22        -0.7000   -6.0940   -2.0770 h1        1 MOL      0.065734
     51 H23        -0.6000   -4.1570   -3.5210 hc        1 MOL      0.040384
     52 H24         0.8360   -4.9850   -3.3790 hc        1 MOL      0.040384
     53 N5          1.2620   -5.0400    0.1900 n         1 MOL     -0.182381
     54 C17         2.3500   -5.5680    1.0780 c3        1 MOL     -0.185278
     55 C18         3.7590   -5.0590    0.7820 c         1 MOL      0.554789
     56 O9          4.6190   -5.4430    1.6080 o         1 MOL     -0.585798
     57 H25         0.7790   -4.2330    0.5430 hn        1 MOL      0.152757
     58 H26         2.4510   -6.6490    1.0330 h1        1 MOL      0.122986
     59 H27         2.1370   -5.3200    2.1150 h1        1 MOL      0.122986
     60 N6          4.0500   -4.2640   -0.2870 n         1 MOL     -0.234658
     61 C19         5.4320   -3.8730   -0.7770 c3        1 MOL      0.044677
     62 C20         5.5100   -2.3090   -0.6590 c         1 MOL      0.593778
     63 O10         4.4910   -1.5990   -0.5580 o         1 MOL     -0.514957
     64 C21         5.7380   -4.4630   -2.0980 c3        1 MOL     -0.291230
     65 C22         5.7390   -3.5330   -3.3050 c         1 MOL      0.572228
     66 N7          4.5970   -2.8430   -3.5890 n         1 MOL     -0.649712
     67 O11         6.6880   -3.3380   -4.0670 o         1 MOL     -0.573000
     68 H28         3.2710   -3.9780   -0.8620 hn        1 MOL      0.150457
     69 H29         6.2020   -4.2890   -0.1380 h1        1 MOL      0.072623
     70 H30         4.9620   -5.2180   -2.2770 hc        1 MOL      0.116841
     71 H31         6.7470   -4.8830   -2.0990 hc        1 MOL      0.116841
     72 H32         3.7590   -2.9560   -3.0330 hn        1 MOL      0.302857
     73 H33         4.6520   -2.3270   -4.4530 hn        1 MOL      0.302857
     74 N8          6.7360   -1.8090   -0.7110 n         1 MOL     -0.545088
     75 C23         7.0720   -0.3930   -1.0250 c3        1 MOL      0.058457
     76 C24         6.4480    0.6020   -0.0820 c         1 MOL      0.648232
     77 O12         6.5710    0.4740    1.1270 o         1 MOL     -0.501483
     78 H34         7.5780   -2.3680   -0.7990 hn        1 MOL      0.346536
     79 H35         6.7720   -0.1420   -2.0400 h1        1 MOL      0.047887
     80 H36         8.1410   -0.2170   -0.9260 h1        1 MOL      0.047887
     81 N9          5.7320    1.6600   -0.5970 n         1 MOL     -0.889361
     82 C25         5.0400    2.6670    0.2360 c3        1 MOL      0.679115
     83 C26         3.8710    2.0640    1.0140 c         1 MOL     -0.006950
     84 O13         3.5070    0.9060    0.7130 o         1 MOL     -0.263644
     85 C27         4.5550    3.7650   -0.6970 c3        1 MOL     -0.267365
     86 C28         5.6420    4.7690   -1.1210 ca        1 MOL      0.033970
     87 C29         6.6700    5.2050   -0.2380 ca        1 MOL     -0.147491
     88 C30         5.6520    5.3260   -2.4400 ca        1 MOL     -0.147491
     89 C31         7.6130    6.2130   -0.6090 ca        1 MOL     -0.273211
     90 C32         6.5490    6.2910   -2.7980 ca        1 MOL     -0.273211
     91 C33         7.5440    6.7470   -1.8900 ca        1 MOL      0.360940
     92 O14         8.3530    7.7240   -2.2080 oh        1 MOL     -0.463698
     93 H37         5.6500    1.7340   -1.6020 hn        1 MOL      0.383472
     94 H38         5.6830    3.1160    1.0020 h1        1 MOL     -0.002036
     95 H39         3.7380    4.3120   -0.2230 hc        1 MOL      0.065573
     96 H40         4.3580    3.2340   -1.6260 hc        1 MOL      0.065573
     97 H41         6.6580    4.8310    0.7780 ha        1 MOL      0.119758
     98 H42         4.9300    4.9800   -3.1600 ha        1 MOL      0.119758
     99 H43         8.4280    6.5260    0.0310 ha        1 MOL      0.157770
    100 H44         6.5200    6.7200   -3.7890 ha        1 MOL      0.157770
    101 H45         8.1450    8.1460   -3.0440 ho        1 MOL      0.367914
    102 N10         3.4230    2.7340    2.0900 n         1 MOL     -0.390978
    103 C34         2.3980    2.3100    3.0470 c3        1 MOL      0.007428
    104 C35         1.0150    1.8850    2.4060 c         1 MOL      0.383942
    105 O15         1.0010    1.0020    1.5270 o         1 MOL     -0.446279
    106 C36         2.9980    1.1520    3.8810 c3        1 MOL      0.265037
    107 C37         2.2480    0.8920    5.1320 c3        1 MOL     -0.047078
    108 C38         4.5060    1.3020    4.2180 c3        1 MOL     -0.346145
    109 C39         2.2800    2.0990    6.1000 c3        1 MOL     -0.138808
    110 H46         3.8500    3.6270    2.3050 hn        1 MOL      0.282153
    111 H47         2.2960    3.1720    3.7090 h1        1 MOL      0.052694
    112 H48         2.8350    0.2650    3.2760 hc        1 MOL      0.005279
    113 H49         2.6930   -0.0030    5.5710 hc        1 MOL      0.024766
    114 H50         1.2160    0.6200    4.8980 hc        1 MOL      0.024766
    115 H51         4.7810    0.5820    4.9800 hc        1 MOL      0.098690
    116 H52         5.1020    1.1180    3.3180 hc        1 MOL      0.098690
    117 H53         4.8260    2.2370    4.6710 hc        1 MOL      0.098690
    118 H54         1.6490    2.9140    5.7850 hc        1 MOL      0.026897
    119 H55         1.8980    1.7110    7.0450 hc        1 MOL      0.026897
    120 H56         3.2830    2.4970    6.2520 hc        1 MOL      0.026897
    121 N11         0.0240    2.5050    2.9850 n         1 MOL     -0.410796
    122 C40        -1.3790    1.9890    2.8810 c3        1 MOL      0.004708
    123 C41        -2.0430    2.0090    1.4860 c         1 MOL      0.451658
    124 O16        -3.1200    1.4010    1.4690 o         1 MOL     -0.475475
    125 C42        -2.2640    2.7680    3.9120 c3        1 MOL     -0.065689
    126 O17        -1.7640    2.5680    5.2780 oh        1 MOL     -0.603865
    127 H57         0.2690    3.3520    3.4770 hn        1 MOL      0.280504
    128 H58        -1.3880    0.9960    3.3150 h1        1 MOL      0.213367
    129 H59        -3.2920    2.4030    3.8970 h1        1 MOL      0.137233
    130 H60        -2.2990    3.8390    3.6870 h1        1 MOL      0.137233
    131 H61        -1.2370    3.3480    5.4910 ho        1 MOL      0.400366
    132 N12        -1.6130    2.7490    0.5020 n         1 MOL     -0.470379
    133 C43        -2.1750    2.4860   -0.9130 c3        1 MOL      0.245308
    134 C44        -1.7590    1.1340   -1.4940 c         1 MOL      0.522758
    135 O18        -0.7680    0.5140   -1.1450 o         1 MOL     -0.519305
    136 C45        -1.7540    3.6930   -1.7510 c3        1 MOL     -0.383295
    137 H62        -0.7490    3.2670    0.5180 hn        1 MOL      0.264465
    138 H63        -3.2520    2.3800   -0.8450 h1        1 MOL      0.060245
    139 H64        -0.6710    3.8030   -1.8030 hc        1 MOL      0.103482
    140 H65        -2.0940    3.5840   -2.7830 hc        1 MOL      0.103482
    141 H66        -2.3350    4.5360   -1.3790 hc        1 MOL      0.103482
    142 N13        -2.6340    0.5430   -2.3810 n         1 MOL     -0.581509
    143 C46        -4.0680    0.7620   -2.6400 c3        1 MOL      0.064841
    144 C47        -4.3020    2.1360   -3.3210 c         1 MOL      0.555746
    145 O19        -3.7170    2.5250   -4.3090 o         1 MOL     -0.560045
    146 C48        -4.7100   -0.3030   -3.4790 c3        1 MOL     -0.116129
    147 H67        -2.2860   -0.3510   -2.7130 hn        1 MOL      0.343102
    148 H68        -4.5610    0.8370   -1.6750 h1        1 MOL      0.112278
    149 H69        -4.8630   -1.1800   -2.8430 hc        1 MOL      0.064736
    150 H70        -5.6500   -0.0540   -3.9730 hc        1 MOL      0.064736
    151 H71        -4.0930   -0.5090   -4.3560 hc        1 MOL      0.064736
    152 N14        -5.1290    3.0310   -2.7540 n         1 MOL     -0.397543
    153 C49        -5.9770    2.9730   -1.5460 c3        1 MOL     -0.217411
    154 C50        -6.3400    4.2940   -0.8570 c         1 MOL      0.661272
    155 O20        -6.3830    4.2690    0.3650 o         1 MOL     -0.549475
    156 C51        -7.2670    2.2060   -1.9740 c3        1 MOL     -0.007661
    157 C52        -8.0010    1.8460   -0.7360 c3        1 MOL     -0.298649
    158 C53        -9.4250    1.3350   -0.9640 c         1 MOL      0.686390
    159 O21       -10.2230    2.0480   -1.6300 o         1 MOL     -0.671340
    160 O22        -9.8690    0.4200   -0.3210 o         1 MOL     -0.671340
    161 H72        -5.1700    3.8170   -3.3790 hn        1 MOL      0.238308
    162 H73        -5.4440    2.4110   -0.7760 h1        1 MOL      0.113904
    163 H74        -7.2290    1.3400   -2.6310 hc        1 MOL      0.015124
    164 H75        -7.9090    2.9420   -2.4540 hc        1 MOL      0.015124
    165 H76        -8.1770    2.7350   -0.1370 hc        1 MOL      0.118671
    166 H77        -7.4380    1.0860   -0.1800 hc        1 MOL      0.118671
    167 N15        -6.4800    5.3700   -1.5960 n         1 MOL     -0.370234
    168 C54        -6.4660    6.6870   -1.0010 c3        1 MOL     -0.117715
    169 H78        -5.4570    7.0960   -1.0500 h1        1 MOL      0.082778
    170 H79        -7.1490    7.3390   -1.5460 h1        1 MOL      0.082778
    171 H80        -6.7800    6.6200    0.0400 h1        1 MOL      0.082778
    172 H81        -6.4600    5.3380   -2.6100 hn        1 MOL      0.315903
    173 Ca1         1.8300   -0.5060   -0.6690 Ca        1 MOL      1.697685
    174 O23         3.2240   -0.0260   -3.0210 oh        1 MOL     -0.813044
    175 H82         4.0740    0.3400   -3.2530 ho        1 MOL      0.408726
    176 H83         2.9400   -0.4850   -3.8130 ho        1 MOL      0.408726
    177 O24         1.6340    2.2180   -1.3750 oh        1 MOL     -0.813044
    178 H84         1.3740    2.5680   -2.2330 ho        1 MOL      0.408726
    179 H85         1.2680    2.8300   -0.7430 ho        1 MOL      0.408726
@<TRIPOS>BOND
     1    1    2 1   
     2    1    4 1   
     3    1    5 1   
     4    1    6 1   
     5    2    3 2   
     6    2    7 1   
     7    7    8 1   
     8    7   15 1   
     9    8    9 1   
    10    8   11 1   
    11    8   16 1   
    12    9   10 2   
    13    9   19 1   
    14   11   12 1   
    15   11   17 1   
    16   11   18 1   
    17   12   13 1   
    18   12   14 1   
    19   19   20 1   
    20   19   28 1   
    21   20   21 1   
    22   20   23 1   
    23   20   29 1   
    24   21   22 2   
    25   21   41 1   
    26   23   24 1   
    27   23   30 1   
    28   23   31 1   
    29   24   25 1   
    30   24   32 1   
    31   24   33 1   
    32   25   26 1   
    33   25   34 1   
    34   25   35 1   
    35   26   27 1   
    36   26   36 1   
    37   26   37 1   
    38   27   38 1   
    39   27   39 1   
    40   27   40 1   
    41   41   42 1   
    42   41   49 1   
    43   42   43 1   
    44   42   45 1   
    45   42   50 1   
    46   43   44 2   
    47   43   53 1   
    48   45   46 1   
    49   45   51 1   
    50   45   52 1   
    51   46   47 1   
    52   46   48 1   
    53   53   54 1   
    54   53   57 1   
    55   54   55 1   
    56   54   58 1   
    57   54   59 1   
    58   55   56 2   
    59   55   60 1   
    60   60   61 1   
    61   60   68 1   
    62   61   62 1   
    63   61   64 1   
    64   61   69 1   
    65   62   63 2   
    66   62   74 1   
    67   64   65 1   
    68   64   70 1   
    69   64   71 1   
    70   65   66 1   
    71   65   67 2   
    72   66   72 1   
    73   66   73 1   
    74   74   75 1   
    75   74   78 1   
    76   75   76 1   
    77   75   79 1   
    78   75   80 1   
    79   76   77 2   
    80   76   81 1   
    81   81   82 1   
    82   81   93 1   
    83   82   83 1   
    84   82   85 1   
    85   82   94 1   
    86   83   84 2   
    87   83  102 1   
    88   85   86 1   
    89   85   95 1   
    90   85   96 1   
    91   86   87 ar  
    92   86   88 ar  
    93   87   89 ar  
    94   87   97 1   
    95   88   90 ar  
    96   88   98 1   
    97   89   91 ar  
    98   89   99 1   
    99   90   91 ar  
   100   90  100 1   
   101   91   92 1   
   102   92  101 1   
   103  102  103 1   
   104  102  110 1   
   105  103  104 1   
   106  103  106 1   
   107  103  111 1   
   108  104  105 2   
   109  104  121 1   
   110  106  107 1   
   111  106  108 1   
   112  106  112 1   
   113  107  109 1   
   114  107  113 1   
   115  107  114 1   
   116  108  115 1   
   117  108  116 1   
   118  108  117 1   
   119  109  118 1   
   120  109  119 1   
   121  109  120 1   
   122  121  122 1   
   123  121  127 1   
   124  122  123 1   
   125  122  125 1   
   126  122  128 1   
   127  123  124 2   
   128  123  132 1   
   129  125  126 1   
   130  125  129 1   
   131  125  130 1   
   132  126  131 1   
   133  132  133 1   
   134  132  137 1   
   135  133  134 1   
   136  133  136 1   
   137  133  138 1   
   138  134  135 2   
   139  134  142 1   
   140  136  139 1   
   141  136  140 1   
   142  136  141 1   
   143  142  143 1   
   144  142  147 1   
   145  143  144 1   
   146  143  146 1   
   147  143  148 1   
   148  144  145 2   
   149  144  152 1   
   150  146  149 1   
   151  146  150 1   
   152  146  151 1   
   153  152  153 1   
   154  152  161 1   
   155  153  154 1   
   156  153  156 1   
   157  153  162 1   
   158  154  155 2   
   159  154  167 1   
   160  156  157 1   
   161  156  163 1   
   162  156  164 1   
   163  157  158 1   
   164  157  165 1   
   165  157  166 1   
   166  158  159 1   
   167  158  160 1   
   168  167  168 1   
   169  167  172 1   
   170  168  169 1   
   171  168  170 1   
   172  168  171 1   
   173  174  175 1   
   174  174  176 1   
   175  177  178 1   
   176  177  179 1   
@<TRIPOS>SUBSTRUCTURE
     1 MOL         1 TEMP              0 ****  ****    0 ROOT
