@<TRIPOS>MOLECULE
MOL
  192   187     1     0     0
SMALL
resp


@<TRIPOS>ATOM
      1 C1         -7.8530    1.2440   -2.8550 c3        1 MOL     -0.578597
      2 C2         -7.3630    1.0140   -1.3760 c         1 MOL      0.704832
      3 O1         -6.2000    1.1950   -1.0920 o         1 MOL     -0.652660
      4 H1         -7.4540    2.1880   -3.2270 hc        1 MOL      0.149238
      5 H2         -7.5010    0.4270   -3.4850 hc        1 MOL      0.149238
      6 H3         -8.9430    1.2770   -2.8760 hc        1 MOL      0.149238
      7 N1         -8.3030    0.6190   -0.4970 n         1 MOL     -0.275804
      8 C3         -8.0730    0.5150    0.9470 c3        1 MOL     -0.065816
      9 C4         -7.2370   -0.7960    1.2810 c         1 MOL      0.411062
     10 O2         -7.1170   -1.1980    2.4550 o         1 MOL     -0.442988
     11 C5         -9.4620    0.4590    1.5550 c3        1 MOL     -0.248670
     12 C6        -10.3000   -0.7540    1.1380 c         1 MOL      0.732691
     13 O3        -10.2290   -1.7990    1.7780 o         1 MOL     -0.713475
     14 O4        -11.1840   -0.5910    0.2040 o         1 MOL     -0.713475
     15 H4         -9.2750    0.6980   -0.7900 hn        1 MOL      0.143399
     16 H5         -7.5190    1.3640    1.3630 h1        1 MOL      0.072581
     17 H6        -10.0470    1.3680    1.3980 hc        1 MOL      0.092644
     18 H7         -9.3660    0.3150    2.6320 hc        1 MOL      0.092644
     19 N2         -6.9030   -1.6010    0.2010 n         1 MOL     -0.147130
     20 C7         -6.4370   -3.0090    0.4170 c3        1 MOL     -0.038583
     21 C8         -5.0170   -3.2770    1.0140 c         1 MOL      0.456005
     22 O5         -4.8470   -4.3510    1.6020 o         1 MOL     -0.536543
     23 C9         -6.6790   -3.6770   -1.0140 c3        1 MOL     -0.113457
     24 C10        -8.1670   -3.8590   -1.3360 c3        1 MOL      0.410821
     25 C11        -8.4890   -4.3160   -2.7590 c3        1 MOL     -0.310338
     26 C12       -10.0020   -4.3090   -2.9710 c3        1 MOL      0.133032
     27 N3        -10.4700   -4.8560   -4.2600 n4        1 MOL     -0.207170
     28 H8         -7.1690   -1.3200   -0.7290 hn        1 MOL      0.184969
     29 H9         -7.1840   -3.4140    1.1130 h1        1 MOL      0.138389
     30 H10        -6.2130   -4.6620   -1.0710 hc        1 MOL      0.018727
     31 H11        -6.3570   -2.9940   -1.7960 hc        1 MOL      0.018727
     32 H12        -8.6980   -2.9110   -1.2710 hc        1 MOL     -0.071560
     33 H13        -8.5880   -4.4600   -0.5330 hc        1 MOL     -0.071560
     34 H14        -8.1040   -5.3320   -2.8110 hc        1 MOL      0.066885
     35 H15        -7.9600   -3.6800   -3.4710 hc        1 MOL      0.066885
     36 H16       -10.3570   -3.2820   -2.8940 hx        1 MOL      0.059006
     37 H17       -10.3790   -4.9640   -2.1790 hx        1 MOL      0.059006
     38 H18       -10.1180   -4.2760   -5.0060 hn        1 MOL      0.273913
     39 H19       -10.0720   -5.7630   -4.4370 hn        1 MOL      0.273913
     40 H20       -11.4810   -4.8760   -4.3430 hn        1 MOL      0.273913
     41 N4         -4.0110   -2.3960    0.9800 n         1 MOL     -0.319807
     42 C13        -3.8530   -1.1710    0.2390 c3        1 MOL      0.149438
     43 C14        -3.7480    0.0150    1.2200 c         1 MOL      0.172572
     44 O6         -3.5630   -0.1020    2.4430 o         1 MOL     -0.484668
     45 C15        -2.6130   -1.1580   -0.6930 c3        1 MOL     -0.055700
     46 C16        -1.3110   -1.7060   -0.1520 c         1 MOL      0.578000
     47 O7         -0.7650   -1.1950    0.8820 o         1 MOL     -0.622621
     48 O8         -0.8330   -2.6940   -0.7790 o         1 MOL     -0.622621
     49 H21        -3.2210   -2.7940    1.4810 hn        1 MOL      0.297635
     50 H22        -4.7070   -0.8860   -0.3820 h1        1 MOL      0.002887
     51 H23        -2.4130   -0.1680   -1.0860 hc        1 MOL     -0.009944
     52 H24        -2.8460   -1.9060   -1.4630 hc        1 MOL     -0.009944
     53 N5         -3.9970    1.2230    0.7530 n         1 MOL     -0.003539
     54 C17        -3.7360    2.5190    1.3470 c3        1 MOL     -0.153055
     55 C18        -2.3040    2.8360    1.5980 c         1 MOL      0.719976
     56 O9         -1.3790    2.0370    1.2870 o         1 MOL     -0.702524
     57 H25        -4.3580    1.2980   -0.1810 hn        1 MOL      0.239393
     58 H26        -4.3330    2.6610    2.2520 h1        1 MOL      0.069637
     59 H27        -4.0700    3.2620    0.6190 h1        1 MOL      0.069637
     60 N6         -2.1030    4.0330    2.2130 n         1 MOL     -0.608558
     61 C19        -0.7810    4.6300    2.6030 c3        1 MOL      0.278701
     62 C20        -0.8780    6.2030    2.6790 c         1 MOL      0.459215
     63 O10        -1.9960    6.6900    2.7730 o         1 MOL     -0.546335
     64 C21        -0.2640    4.0070    3.9300 c3        1 MOL     -0.176993
     65 C22         1.1310    3.5320    3.8520 c         1 MOL      0.704358
     66 O11         1.5810    2.9920    2.8460 o         1 MOL     -0.726053
     67 O12         1.7700    3.4210    4.9620 o         1 MOL     -0.726053
     68 H28        -2.9120    4.5260    2.5400 hn        1 MOL      0.297316
     69 H29        -0.1280    4.4610    1.7470 h1        1 MOL      0.123831
     70 H30        -0.8710    3.1740    4.2680 hc        1 MOL      0.048983
     71 H31        -0.3200    4.7640    4.7230 hc        1 MOL      0.048983
     72 N7          0.1530    7.0220    2.4910 n         1 MOL     -0.463933
     73 C23         1.5400    6.6040    2.1300 c3        1 MOL     -0.051400
     74 C24         1.5880    6.1980    0.6280 c         1 MOL      0.594809
     75 O13         0.5830    6.2760   -0.0930 o         1 MOL     -0.505338
     76 H32        -0.0740    8.0020    2.4920 hn        1 MOL      0.322642
     77 H33         1.8200    5.7830    2.7910 h1        1 MOL      0.077835
     78 H34         2.1580    7.4830    2.3260 h1        1 MOL      0.077835
     79 N8          2.7270    5.5770    0.2590 n         1 MOL     -0.690246
     80 C25         2.8120    4.8340   -1.0650 c3        1 MOL      0.156106
     81 C26         1.7600    3.7440   -1.0590 c         1 MOL      0.403858
     82 O14         1.6830    2.9260   -0.1540 o         1 MOL     -0.473961
     83 C27         4.1720    4.3200   -1.4740 c3        1 MOL      0.448124
     84 C28         4.2360    3.8790   -2.9220 c3        1 MOL     -0.466119
     85 O15         4.7460    3.3980   -0.5720 oh        1 MOL     -0.647774
     86 H35         3.5240    5.6140    0.8850 hn        1 MOL      0.360877
     87 H36         2.5760    5.5410   -1.8570 h1        1 MOL      0.041824
     88 H37         4.7590    5.2340   -1.4050 h1        1 MOL      0.016841
     89 H38         4.2720    2.5700   -0.5070 ho        1 MOL      0.405762
     90 H39         3.9580    4.5710   -3.7200 hc        1 MOL      0.110637
     91 H40         5.2690    3.6350   -3.1520 hc        1 MOL      0.110637
     92 H41         3.7260    2.9210   -3.0170 hc        1 MOL      0.110637
     93 N9          0.9880    3.6100   -2.1810 n         1 MOL     -0.559409
     94 C29         0.1530    2.4710   -2.5350 c3        1 MOL      0.079469
     95 C30         0.7230    1.1080   -2.2510 c         1 MOL      0.394178
     96 O16         0.5890    0.5590   -1.1100 o         1 MOL     -0.648432
     97 C31        -1.3790    2.6040   -2.1280 c3        1 MOL      0.155326
     98 C32        -1.8250    4.1020   -2.1010 c3        1 MOL      0.013870
     99 C33        -2.2860    1.9010   -3.1400 c3        1 MOL     -0.324453
    100 C34        -3.3060    4.4500   -1.8760 c3        1 MOL     -0.318699
    101 H42         1.0970    4.3700   -2.8370 hn        1 MOL      0.299904
    102 H43         0.0820    2.5080   -3.6220 h1        1 MOL      0.039708
    103 H44        -1.5510    2.1370   -1.1510 hc        1 MOL      0.119295
    104 H45        -1.5480    4.5150   -3.0740 hc        1 MOL      0.018752
    105 H46        -1.2200    4.5620   -1.3190 hc        1 MOL      0.018752
    106 H47        -2.0660    0.8790   -3.4300 hc        1 MOL      0.067474
    107 H48        -3.3380    1.9710   -2.8530 hc        1 MOL      0.067474
    108 H49        -2.1240    2.4700   -4.0620 hc        1 MOL      0.067474
    109 H50        -3.4070    5.3070   -1.2170 hc        1 MOL      0.087984
    110 H51        -3.5880    4.7530   -2.8850 hc        1 MOL      0.087984
    111 H52        -3.8680    3.6380   -1.4040 hc        1 MOL      0.087984
    112 N10         1.6620    0.5760   -2.9810 n         1 MOL     -0.035642
    113 C35         1.8760   -0.9260   -3.0130 c3        1 MOL     -0.185228
    114 C36         3.3620   -1.2460   -3.2720 c         1 MOL      0.460717
    115 O17         3.7590   -2.4320   -3.4940 o         1 MOL     -0.573868
    116 C37         0.8110   -1.6920   -3.8400 c3        1 MOL      0.401365
    117 C38         0.7370   -1.2020   -5.2270 c3        1 MOL     -0.277376
    118 O18        -0.4720   -1.5460   -3.2020 oh        1 MOL     -0.560683
    119 H53         1.7970    1.1020   -3.8430 hn        1 MOL      0.143329
    120 H54         1.8150   -1.2230   -1.9610 h1        1 MOL      0.193688
    121 H55         1.0590   -2.7480   -3.7380 h1        1 MOL      0.017810
    122 H56        -0.3210   -1.8530   -2.3020 ho        1 MOL      0.327126
    123 H57         1.6890   -1.1960   -5.7630 hc        1 MOL      0.068361
    124 H58         0.0920   -1.8890   -5.7710 hc        1 MOL      0.068361
    125 H59         0.2470   -0.2300   -5.2020 hc        1 MOL      0.068361
    126 N11         4.2340   -0.2720   -3.1100 n         1 MOL     -0.263159
    127 C39         5.7770   -0.4550   -3.2050 c3        1 MOL      0.037718
    128 C40         6.4080   -1.0750   -1.9840 c         1 MOL      0.449019
    129 O19         6.8920   -0.3140   -1.1650 o         1 MOL     -0.501564
    130 C41         6.5170    0.8560   -3.5820 c3        1 MOL      0.557056
    131 C42         7.8770    0.5080   -4.1910 c3        1 MOL     -0.383374
    132 O20         5.7620    1.4910   -4.5430 oh        1 MOL     -0.684306
    133 H60         3.8300    0.6220   -2.8920 hn        1 MOL      0.160370
    134 H61         5.9090   -1.1190   -4.0570 h1        1 MOL      0.064303
    135 H62         6.6010    1.5540   -2.7500 h1        1 MOL     -0.067316
    136 H63         6.2810    2.2430   -4.8360 ho        1 MOL      0.405089
    137 H64         7.8240    0.3650   -5.2690 hc        1 MOL      0.083554
    138 H65         8.5350    1.3280   -3.8940 hc        1 MOL      0.083554
    139 H66         8.2960   -0.3780   -3.7020 hc        1 MOL      0.083554
    140 N12         6.3300   -2.4250   -1.8900 n         1 MOL     -0.697616
    141 C43         6.3290   -3.1300   -0.6270 c3        1 MOL      0.370910
    142 C44         5.0710   -2.7900    0.2650 c         1 MOL      0.482616
    143 O21         4.4910   -1.7020    0.0650 o         1 MOL     -0.468494
    144 C45         7.7040   -2.9290    0.1350 c3        1 MOL     -0.361185
    145 C46         9.0080   -2.9770   -0.6880 c3        1 MOL      0.270536
    146 C47        10.1950   -3.2960    0.1890 c3        1 MOL     -0.024087
    147 C48        10.6590   -2.1960    1.0850 c3        1 MOL     -0.051451
    148 N13        11.1090   -1.0330    0.3290 n4        1 MOL     -0.238860
    149 H67         5.8180   -2.8300   -2.6600 hn        1 MOL      0.374135
    150 H68         6.1980   -4.1880   -0.8410 h1        1 MOL      0.034828
    151 H69         7.7390   -3.7350    0.8710 hc        1 MOL      0.086886
    152 H70         7.7430   -2.0190    0.7230 hc        1 MOL      0.086886
    153 H71         9.2550   -2.1090   -1.3060 hc        1 MOL     -0.041646
    154 H72         8.9270   -3.8570   -1.3260 hc        1 MOL     -0.041646
    155 H73        10.9990   -3.5600   -0.4920 hc        1 MOL      0.028237
    156 H74        10.0000   -4.1680    0.8170 hc        1 MOL      0.028237
    157 H75        11.4570   -2.5750    1.7150 hx        1 MOL      0.109034
    158 H76         9.8210   -1.9720    1.7340 hx        1 MOL      0.109034
    159 H77        11.8410   -1.2400   -0.3250 hn        1 MOL      0.252212
    160 H78        10.3940   -0.5650   -0.2090 hn        1 MOL      0.252212
    161 H79        11.3880   -0.2790    0.9290 hn        1 MOL      0.252212
    162 N14         4.6300   -3.6330    1.2310 n         1 MOL     -0.464613
    163 C49         3.6150   -3.2240    2.2300 c3        1 MOL      0.083082
    164 C50         2.3100   -2.8400    1.4750 c         1 MOL      0.383514
    165 O22         1.8960   -1.6940    1.6390 o         1 MOL     -0.632021
    166 C51         3.3230   -4.4230    3.1340 c3        1 MOL      0.143944
    167 C52         4.3640   -4.5310    4.3100 c3        1 MOL     -0.273419
    168 C53         4.3680   -5.9580    4.9190 c         1 MOL      0.652266
    169 O23         3.9440   -5.9860    6.1030 o         1 MOL     -0.643262
    170 O24         4.5560   -6.9740    4.2130 o         1 MOL     -0.643262
    171 H80         5.3200   -4.3470    1.4480 hn        1 MOL      0.231376
    172 H81         3.9440   -2.4430    2.9110 h1        1 MOL      0.075454
    173 H82         3.2960   -5.3460    2.5610 hc        1 MOL      0.030685
    174 H83         2.3050   -4.3590    3.4970 hc        1 MOL      0.030685
    175 H84         4.1020   -3.7060    4.9700 hc        1 MOL      0.046933
    176 H85         5.3980   -4.3150    4.0490 hc        1 MOL      0.046933
    177 N15         1.6170   -3.5770    0.6490 n         1 MOL     -0.207139
    178 C54         1.8920   -4.8750    0.0940 c3        1 MOL     -0.057510
    179 H86         1.6570   -5.6420    0.8310 h1        1 MOL      0.043714
    180 H87         1.2810   -5.0260   -0.7960 h1        1 MOL      0.043714
    181 H88         2.9470   -4.9400   -0.1730 h1        1 MOL      0.043714
    182 H89         0.9620   -2.9950    0.1550 hn        1 MOL      0.258622
    183 Ca1         1.0290    0.7660    1.4040 Ca        1 MOL      1.808311
    184 O25         3.5350    0.7890    0.5020 oh        1 MOL     -0.876872
    185 H90         3.9770    0.0320    0.1170 ho        1 MOL      0.424120
    186 H91         4.1180    1.0690    1.2120 ho        1 MOL      0.424120
    187 O26        -0.7340    0.4510    3.5070 oh        1 MOL     -0.876872
    188 H92        -0.9380    0.5690    4.4360 ho        1 MOL      0.424120
    189 H93        -1.5490    0.1120    3.1230 ho        1 MOL      0.424120
    190 O27         2.3150    0.2030    3.7500 oh        1 MOL     -0.876872
    191 H94         2.3480    1.0110    4.2680 ho        1 MOL      0.424120
    192 H95         1.8970   -0.4360    4.3270 ho        1 MOL      0.424120
@<TRIPOS>BOND
     1    1    2 1   
     2    1    4 1   
     3    1    5 1   
     4    1    6 1   
     5    2    3 2   
     6    2    7 1   
     7    7    8 1   
     8    7   15 1   
     9    8    9 1   
    10    8   11 1   
    11    8   16 1   
    12    9   10 2   
    13    9   19 1   
    14   11   12 1   
    15   11   17 1   
    16   11   18 1   
    17   12   13 1   
    18   12   14 1   
    19   19   20 1   
    20   19   28 1   
    21   20   21 1   
    22   20   23 1   
    23   20   29 1   
    24   21   22 2   
    25   21   41 1   
    26   23   24 1   
    27   23   30 1   
    28   23   31 1   
    29   24   25 1   
    30   24   32 1   
    31   24   33 1   
    32   25   26 1   
    33   25   34 1   
    34   25   35 1   
    35   26   27 1   
    36   26   36 1   
    37   26   37 1   
    38   27   38 1   
    39   27   39 1   
    40   27   40 1   
    41   41   42 1   
    42   41   49 1   
    43   42   43 1   
    44   42   45 1   
    45   42   50 1   
    46   43   44 2   
    47   43   53 1   
    48   45   46 1   
    49   45   51 1   
    50   45   52 1   
    51   46   47 1   
    52   46   48 1   
    53   53   54 1   
    54   53   57 1   
    55   54   55 1   
    56   54   58 1   
    57   54   59 1   
    58   55   56 2   
    59   55   60 1   
    60   60   61 1   
    61   60   68 1   
    62   61   62 1   
    63   61   64 1   
    64   61   69 1   
    65   62   63 2   
    66   62   72 1   
    67   64   65 1   
    68   64   70 1   
    69   64   71 1   
    70   65   66 1   
    71   65   67 1   
    72   72   73 1   
    73   72   76 1   
    74   73   74 1   
    75   73   77 1   
    76   73   78 1   
    77   74   75 2   
    78   74   79 1   
    79   79   80 1   
    80   79   86 1   
    81   80   81 1   
    82   80   83 1   
    83   80   87 1   
    84   81   82 2   
    85   81   93 1   
    86   83   84 1   
    87   83   85 1   
    88   83   88 1   
    89   84   90 1   
    90   84   91 1   
    91   84   92 1   
    92   85   89 1   
    93   93   94 1   
    94   93  101 1   
    95   94   95 1   
    96   94   97 1   
    97   94  102 1   
    98   95   96 2   
    99   95  112 1   
   100   97   98 1   
   101   97   99 1   
   102   97  103 1   
   103   98  100 1   
   104   98  104 1   
   105   98  105 1   
   106   99  106 1   
   107   99  107 1   
   108   99  108 1   
   109  100  109 1   
   110  100  110 1   
   111  100  111 1   
   112  112  113 1   
   113  112  119 1   
   114  113  114 1   
   115  113  116 1   
   116  113  120 1   
   117  114  115 2   
   118  114  126 1   
   119  116  117 1   
   120  116  118 1   
   121  116  121 1   
   122  117  123 1   
   123  117  124 1   
   124  117  125 1   
   125  118  122 1   
   126  126  127 1   
   127  126  133 1   
   128  127  128 1   
   129  127  130 1   
   130  127  134 1   
   131  128  129 2   
   132  128  140 1   
   133  130  131 1   
   134  130  132 1   
   135  130  135 1   
   136  131  137 1   
   137  131  138 1   
   138  131  139 1   
   139  132  136 1   
   140  140  141 1   
   141  140  149 1   
   142  141  142 1   
   143  141  144 1   
   144  141  150 1   
   145  142  143 2   
   146  142  162 1   
   147  144  145 1   
   148  144  151 1   
   149  144  152 1   
   150  145  146 1   
   151  145  153 1   
   152  145  154 1   
   153  146  147 1   
   154  146  155 1   
   155  146  156 1   
   156  147  148 1   
   157  147  157 1   
   158  147  158 1   
   159  148  159 1   
   160  148  160 1   
   161  148  161 1   
   162  162  163 1   
   163  162  171 1   
   164  163  164 1   
   165  163  166 1   
   166  163  172 1   
   167  164  165 2   
   168  164  177 1   
   169  166  167 1   
   170  166  173 1   
   171  166  174 1   
   172  167  168 1   
   173  167  175 1   
   174  167  176 1   
   175  168  169 1   
   176  168  170 1   
   177  177  178 1   
   178  177  182 1   
   179  178  179 1   
   180  178  180 1   
   181  178  181 1   
   182  184  185 1   
   183  184  186 1   
   184  187  188 1   
   185  187  189 1   
   186  190  191 1   
   187  190  192 1   
@<TRIPOS>SUBSTRUCTURE
     1 MOL         1 TEMP              0 ****  ****    0 ROOT
