@<TRIPOS>MOLECULE
MOL
  195   189     1     0     0
SMALL
resp


@<TRIPOS>ATOM
      1 C1         -2.5520   -5.4310   -3.8610 c3        1 MOL     -0.521331
      2 C2         -3.2610   -4.7510   -2.5770 c         1 MOL      0.704676
      3 O1         -2.5710   -4.2240   -1.7210 o         1 MOL     -0.578727
      4 H1         -2.0920   -4.6560   -4.4750 hc        1 MOL      0.130416
      5 H2         -1.7870   -6.1310   -3.5270 hc        1 MOL      0.130416
      6 H3         -3.3000   -5.9630   -4.4500 hc        1 MOL      0.130416
      7 N1         -4.6150   -4.9440   -2.4000 n         1 MOL     -0.571241
      8 C3         -5.5360   -4.3250   -1.3990 c3        1 MOL      0.206204
      9 C4         -5.3470   -2.7550   -1.4060 c         1 MOL      0.204074
     10 O2         -5.1150   -2.1400   -0.4220 o         1 MOL     -0.509596
     11 C5         -5.5850   -5.0320   -0.0160 c3        1 MOL     -0.188816
     12 C6         -4.1770   -5.2440    0.5720 c         1 MOL      0.728519
     13 O3         -3.9080   -6.4320    0.9210 o         1 MOL     -0.724288
     14 O4         -3.3750   -4.2480    0.7440 o         1 MOL     -0.724288
     15 H4         -5.1390   -5.5680   -2.9960 hn        1 MOL      0.298814
     16 H5         -6.5250   -4.5050   -1.8230 h1        1 MOL      0.066866
     17 H6         -6.1100   -5.9900   -0.0370 hc        1 MOL      0.080142
     18 H7         -6.0810   -4.3890    0.7070 hc        1 MOL      0.080142
     19 N2         -5.3980   -2.0850   -2.5740 n         1 MOL     -0.302142
     20 C7         -5.5470   -0.6050   -2.6880 c3        1 MOL      0.071424
     21 C8         -6.7170    0.1150   -2.0130 c         1 MOL      0.461163
     22 O5         -7.4190    0.9210   -2.6210 o         1 MOL     -0.543541
     23 C9         -4.2270    0.0520   -2.4100 c3        1 MOL      0.009309
     24 C10        -4.1980    1.5380   -2.7940 c3        1 MOL     -0.059045
     25 C11        -2.9470   -0.6070   -3.0880 c3        1 MOL     -0.080383
     26 C12        -4.2310    1.8120   -4.3310 c3        1 MOL     -0.363855
     27 H8         -5.5830   -2.5680   -3.4430 hn        1 MOL      0.228509
     28 H9         -5.7060   -0.3810   -3.7460 h1        1 MOL      0.044052
     29 H10        -4.0480    0.0380   -1.3400 hc        1 MOL     -0.039116
     30 H11        -3.2290    1.8180   -2.3830 hc        1 MOL      0.064688
     31 H12        -4.9770    2.0770   -2.2690 hc        1 MOL      0.064688
     32 H13        -2.7800   -1.6120   -2.6980 hc        1 MOL      0.031646
     33 H14        -3.0120   -0.7360   -4.1710 hc        1 MOL      0.031646
     34 H15        -2.0210   -0.0690   -2.8720 hc        1 MOL      0.031646
     35 H16        -5.1640    1.4830   -4.7920 hc        1 MOL      0.092357
     36 H17        -4.2000    2.8900   -4.4650 hc        1 MOL      0.092357
     37 H18        -3.2930    1.4100   -4.6990 hc        1 MOL      0.092357
     38 N3         -7.0630   -0.2560   -0.7570 n         1 MOL     -0.444317
     39 C13        -8.2710    0.2760   -0.1010 c3        1 MOL      0.076265
     40 C14        -8.3230    1.7780    0.2580 c         1 MOL      0.618834
     41 O6         -9.3260    2.3750    0.0080 o         1 MOL     -0.611586
     42 C15        -8.6420   -0.5390    1.1600 c3        1 MOL     -0.311713
     43 C16        -9.0230   -2.0170    0.9410 c         1 MOL      0.730606
     44 O7         -8.9040   -2.6060   -0.1540 o         1 MOL     -0.730272
     45 O8         -9.4560   -2.7050    1.8790 o         1 MOL     -0.730272
     46 H19        -6.4380   -0.9350   -0.3230 hn        1 MOL      0.461517
     47 H20        -9.0490    0.0980   -0.8370 h1        1 MOL      0.070746
     48 H21        -9.4040   -0.0950    1.8000 hc        1 MOL      0.087585
     49 H22        -7.8060   -0.4820    1.8530 hc        1 MOL      0.087585
     50 N4         -7.3300    2.3520    0.8270 n         1 MOL     -0.518794
     51 C17        -6.1650    1.8380    1.5280 c3        1 MOL     -0.013306
     52 C18        -6.2450    1.8970    3.0540 c         1 MOL      0.600808
     53 O9         -7.3000    1.7630    3.6660 o         1 MOL     -0.556914
     54 H23        -7.4350    3.3610    0.8410 hn        1 MOL      0.293081
     55 H24        -5.3220    2.4590    1.2210 h1        1 MOL      0.082559
     56 H25        -6.0250    0.8000    1.2200 h1        1 MOL      0.082559
     57 N5         -5.1480    2.1460    3.7510 n         1 MOL     -0.484238
     58 C19        -3.7010    2.2490    3.5260 c3        1 MOL      0.085141
     59 C20        -3.0360    0.8670    3.4200 c         1 MOL      0.499308
     60 O10        -3.5840   -0.0780    3.8900 o         1 MOL     -0.509291
     61 C21        -3.1020    2.9650    4.7710 c3        1 MOL     -0.187779
     62 C22        -3.7280    4.3570    5.0290 c         1 MOL      0.702443
     63 O11        -3.4250    5.3010    4.2720 o         1 MOL     -0.712089
     64 O12        -4.2210    4.5530    6.1470 o         1 MOL     -0.712089
     65 H26        -5.4110    2.3750    4.7000 hn        1 MOL      0.285544
     66 H27        -3.4610    2.9360    2.7140 h1        1 MOL     -0.042185
     67 H28        -2.0300    3.0740    4.6200 hc        1 MOL      0.053003
     68 H29        -3.3950    2.4460    5.6830 hc        1 MOL      0.053003
     69 N6         -1.8740    0.6840    2.8320 n         1 MOL     -0.410770
     70 C23        -1.0270    1.7230    2.2420 c3        1 MOL     -0.073566
     71 C24        -1.5090    2.1790    0.8740 c         1 MOL      0.647947
     72 O13        -2.2540    1.4080    0.2300 o         1 MOL     -0.537673
     73 H30        -1.6090   -0.2650    2.6380 hn        1 MOL      0.312698
     74 H31        -0.0090    1.3400    2.1400 h1        1 MOL      0.060450
     75 H32        -0.9560    2.6120    2.8690 h1        1 MOL      0.060450
     76 N7         -1.1680    3.3960    0.4800 n         1 MOL     -0.458357
     77 C25        -1.6000    4.0290   -0.7300 c3        1 MOL      0.210455
     78 C26        -0.6120    3.7730   -1.9580 c         1 MOL      0.360897
     79 O14        -0.8610    4.3060   -3.1070 o         1 MOL     -0.515230
     80 C27        -1.8850    5.5100   -0.4010 c3        1 MOL      0.216916
     81 C28        -2.8990    6.0730   -1.3890 c3        1 MOL     -0.330226
     82 C29        -2.9850    7.6040   -1.2390 c         1 MOL      0.705847
     83 N8         -3.9080    7.9510   -0.3460 n         1 MOL     -0.830818
     84 O15        -2.3200    8.4290   -1.8300 o         1 MOL     -0.583666
     85 H33        -0.6880    4.0000    1.1390 hn        1 MOL      0.243580
     86 H34        -2.5990    3.6350   -0.9480 h1        1 MOL      0.016383
     87 H35        -0.9390    6.0590   -0.4250 hc        1 MOL     -0.024470
     88 H36        -2.2440    5.5980    0.6270 hc        1 MOL     -0.024470
     89 H37        -3.8580    5.6430   -1.1190 hc        1 MOL      0.094687
     90 H38        -2.6750    5.9480   -2.4570 hc        1 MOL      0.094687
     91 H39        -4.3630    7.3280    0.3080 hn        1 MOL      0.364595
     92 H40        -4.0490    8.9350   -0.1750 hn        1 MOL      0.364595
     93 N9          0.5700    3.1080   -1.7460 n         1 MOL     -0.361809
     94 C30         1.6660    3.0400   -2.7270 c3        1 MOL      0.062540
     95 C31         2.9910    3.3100   -2.0350 c         1 MOL      0.445441
     96 O16         3.1360    2.8990   -0.8630 o         1 MOL     -0.416480
     97 C32         1.6600    1.6230   -3.4770 c3        1 MOL      0.342089
     98 C33         2.8120    1.5450   -4.4820 c3        1 MOL     -0.308102
     99 C34         0.3970    1.3770   -4.2440 c3        1 MOL     -0.308102
    100 H41         0.6740    2.7200   -0.8260 hn        1 MOL      0.187400
    101 H42         1.5860    3.8010   -3.4950 h1        1 MOL      0.046575
    102 H43         1.8470    0.8130   -2.7650 hc        1 MOL     -0.007304
    103 H44         2.6970    0.7010   -5.1580 hc        1 MOL      0.059311
    104 H45         2.6940    2.4100   -5.1350 hc        1 MOL      0.059311
    105 H46         3.7720    1.5550   -3.9800 hc        1 MOL      0.059311
    106 H47         0.3290    2.0060   -5.1310 hc        1 MOL      0.059311
    107 H48         0.3510    0.3170   -4.4890 hc        1 MOL      0.059311
    108 H49        -0.5250    1.5790   -3.6990 hc        1 MOL      0.059311
    109 N10         3.9620    3.9840   -2.6980 n         1 MOL     -0.410691
    110 C35         5.3930    4.0630   -2.3600 c3        1 MOL      0.032939
    111 C36         6.2460    2.8260   -1.9740 c         1 MOL      0.528231
    112 O17         7.0900    2.3200   -2.6780 o         1 MOL     -0.566444
    113 C37         5.5900    5.3450   -1.5390 c3        1 MOL     -0.630981
    114 C38         6.9780    5.6070   -1.0550 c         1 MOL      0.762847
    115 N11         7.8220    6.3060   -1.7630 n         1 MOL     -0.792336
    116 O18         7.3670    5.2590    0.1160 o         1 MOL     -0.584513
    117 H50         3.7500    4.5220   -3.5270 hn        1 MOL      0.300858
    118 H51         5.8870    4.3350   -3.2930 h1        1 MOL      0.065692
    119 H52         4.9710    5.3390   -0.6400 hc        1 MOL      0.206056
    120 H53         5.3500    6.1040   -2.2820 hc        1 MOL      0.206056
    121 H54         7.6180    6.7460   -2.6500 hn        1 MOL      0.356865
    122 H55         8.7860    6.3980   -1.4730 hn        1 MOL      0.356865
    123 N12         5.9970    2.2900   -0.7460 n         1 MOL     -0.194263
    124 C39         6.7170    1.2770   -0.1150 c3        1 MOL      0.192544
    125 C40         5.7320    0.2070    0.3540 c         1 MOL      0.153130
    126 O19         4.5280    0.4380    0.4380 o         1 MOL     -0.503220
    127 C41         7.4860    1.8990    1.0610 c3        1 MOL     -0.443474
    128 C42         8.3850    0.9870    1.8220 ca        1 MOL      0.253255
    129 C43         7.9950    0.4520    3.0630 ca        1 MOL     -0.247283
    130 C44         9.5780    0.5860    1.1620 ca        1 MOL     -0.247283
    131 C45         8.8710   -0.4030    3.7680 ca        1 MOL     -0.229357
    132 C46        10.4560   -0.3000    1.8950 ca        1 MOL     -0.229357
    133 C47        10.0590   -0.8380    3.1590 ca        1 MOL      0.271006
    134 O20        10.8310   -1.8290    3.7770 oh        1 MOL     -0.433503
    135 H56         5.1600    2.6220   -0.2770 hn        1 MOL      0.195797
    136 H57         7.4030    0.8080   -0.8160 h1        1 MOL      0.007688
    137 H58         6.6730    2.2980    1.6740 hc        1 MOL      0.161199
    138 H59         8.0640    2.7380    0.6600 hc        1 MOL      0.161199
    139 H60         7.0650    0.8700    3.4050 ha        1 MOL      0.142725
    140 H61         9.8270    0.9900    0.1980 ha        1 MOL      0.142725
    141 H62         8.6030   -0.8050    4.7360 ha        1 MOL      0.139230
    142 H63        11.3950   -0.6180    1.4760 ha        1 MOL      0.139230
    143 H64        11.4610   -2.2560    3.1960 ho        1 MOL      0.308174
    144 N13         6.2280   -0.9420    0.7970 n         1 MOL      0.320044
    145 C48         5.6210   -2.1400    1.3510 c3        1 MOL     -0.072779
    146 C49         4.8190   -2.9810    0.3790 c         1 MOL      0.452746
    147 O21         4.0950   -3.8790    0.8110 o         1 MOL     -0.485629
    148 C50         4.9890   -1.8880    2.7420 c3        1 MOL     -0.143299
    149 C51         5.1310   -3.1280    3.6800 c3        1 MOL      0.113187
    150 C52         4.5600   -2.7830    5.0580 c         1 MOL      0.471951
    151 O22         5.2780   -2.2580    5.9600 o         1 MOL     -0.659807
    152 O23         3.2920   -3.0300    5.3010 o         1 MOL     -0.659807
    153 H65         7.1860   -1.1390    0.5740 hn        1 MOL      0.007617
    154 H66         6.5090   -2.7760    1.4480 h1        1 MOL      0.029609
    155 H67         3.9330   -1.6350    2.6690 hc        1 MOL      0.088238
    156 H68         5.4930   -1.0180    3.1690 hc        1 MOL      0.088238
    157 H69         6.1710   -3.3910    3.8460 hc        1 MOL     -0.054819
    158 H70         4.5890   -4.0080    3.3350 hc        1 MOL     -0.054819
    159 N14         4.8380   -2.7160   -0.9110 n         1 MOL     -0.256368
    160 C53         4.1400   -3.4650   -1.9990 c3        1 MOL     -0.161754
    161 C54         5.0420   -4.2210   -3.0090 c         1 MOL      0.476628
    162 O24         4.5630   -5.0620   -3.7750 o         1 MOL     -0.497786
    163 C55         3.3950   -2.4380   -2.8390 c3        1 MOL      0.238354
    164 C56         1.9180   -2.8640   -3.1250 c3        1 MOL     -0.085840
    165 C57         1.0880   -3.0100   -1.8760 c         1 MOL      0.896186
    166 O25         0.8930   -4.0960   -1.3280 o         1 MOL     -0.834826
    167 O26         0.5700   -2.0350   -1.2850 o         1 MOL     -0.834826
    168 H71         5.6270   -2.1570   -1.1970 hn        1 MOL      0.073298
    169 H72         3.4600   -4.2150   -1.6000 h1        1 MOL      0.143522
    170 H73         3.8380   -2.2570   -3.8190 hc        1 MOL     -0.043535
    171 H74         3.3960   -1.4680   -2.3210 hc        1 MOL     -0.043535
    172 H75         1.9020   -3.8410   -3.6090 hc        1 MOL     -0.002554
    173 H76         1.4050   -2.1470   -3.7630 hc        1 MOL     -0.002554
    174 N15         6.3450   -3.8270   -3.1000 n         1 MOL     -0.320936
    175 C58         7.3890   -4.4050   -3.8980 c3        1 MOL     -0.071676
    176 H77         7.9830   -3.6100   -4.3500 h1        1 MOL      0.058179
    177 H78         8.0290   -5.0230   -3.2670 h1        1 MOL      0.058179
    178 H79         6.9480   -5.0200   -4.6820 h1        1 MOL      0.058179
    179 H80         6.6530   -3.1020   -2.4640 hn        1 MOL      0.261396
    180 Ca1        -0.9250   -3.5460    0.4030 Ca        1 MOL      1.714643
    181 O27        -2.4020   -1.4410    0.6020 oh        1 MOL     -0.774859
    182 H81        -3.2410   -1.7700    0.2690 ho        1 MOL      0.386069
    183 H82        -2.4390   -0.4950    0.4670 ho        1 MOL      0.386069
    184 O28         0.7420   -1.3070    2.0730 oh        1 MOL     -0.774859
    185 H83         0.6840   -0.5780    1.4520 ho        1 MOL      0.386069
    186 H84         1.6320   -1.6360    1.9580 ho        1 MOL      0.386069
    187 O29        -0.5950   -6.2400    0.2160 oh        1 MOL     -0.774859
    188 H85         0.2050   -6.6390   -0.1250 ho        1 MOL      0.386069
    189 H86        -1.2340   -6.9550    0.2430 ho        1 MOL      0.386069
    190 O30         1.5260   -3.8290    1.7230 oh        1 MOL     -0.774859
    191 H87         1.5680   -4.2760    2.5710 ho        1 MOL      0.386069
    192 H88         2.4340   -3.7730    1.4380 ho        1 MOL      0.386069
    193 O31        -1.3860   -4.0140    3.1000 oh        1 MOL     -0.774859
    194 H89        -1.7590   -3.3690    3.7020 ho        1 MOL      0.386069
    195 H90        -1.9920   -4.7560    3.1540 ho        1 MOL      0.386069
@<TRIPOS>BOND
     1    1    2 1   
     2    1    4 1   
     3    1    5 1   
     4    1    6 1   
     5    2    3 2   
     6    2    7 1   
     7    7    8 1   
     8    7   15 1   
     9    8    9 1   
    10    8   11 1   
    11    8   16 1   
    12    9   10 2   
    13    9   19 1   
    14   11   12 1   
    15   11   17 1   
    16   11   18 1   
    17   12   13 1   
    18   12   14 1   
    19   19   20 1   
    20   19   27 1   
    21   20   21 1   
    22   20   23 1   
    23   20   28 1   
    24   21   22 2   
    25   21   38 1   
    26   23   24 1   
    27   23   25 1   
    28   23   29 1   
    29   24   26 1   
    30   24   30 1   
    31   24   31 1   
    32   25   32 1   
    33   25   33 1   
    34   25   34 1   
    35   26   35 1   
    36   26   36 1   
    37   26   37 1   
    38   38   39 1   
    39   38   46 1   
    40   39   40 1   
    41   39   42 1   
    42   39   47 1   
    43   40   41 2   
    44   40   50 1   
    45   42   43 1   
    46   42   48 1   
    47   42   49 1   
    48   43   44 1   
    49   43   45 1   
    50   50   51 1   
    51   50   54 1   
    52   51   52 1   
    53   51   55 1   
    54   51   56 1   
    55   52   53 2   
    56   52   57 1   
    57   57   58 1   
    58   57   65 1   
    59   58   59 1   
    60   58   61 1   
    61   58   66 1   
    62   59   60 2   
    63   59   69 1   
    64   61   62 1   
    65   61   67 1   
    66   61   68 1   
    67   62   63 1   
    68   62   64 1   
    69   69   70 1   
    70   69   73 1   
    71   70   71 1   
    72   70   74 1   
    73   70   75 1   
    74   71   72 2   
    75   71   76 1   
    76   76   77 1   
    77   76   85 1   
    78   77   78 1   
    79   77   80 1   
    80   77   86 1   
    81   78   79 2   
    82   78   93 1   
    83   80   81 1   
    84   80   87 1   
    85   80   88 1   
    86   81   82 1   
    87   81   89 1   
    88   81   90 1   
    89   82   83 1   
    90   82   84 2   
    91   83   91 1   
    92   83   92 1   
    93   93   94 1   
    94   93  100 1   
    95   94   95 1   
    96   94   97 1   
    97   94  101 1   
    98   95   96 2   
    99   95  109 1   
   100   97   98 1   
   101   97   99 1   
   102   97  102 1   
   103   98  103 1   
   104   98  104 1   
   105   98  105 1   
   106   99  106 1   
   107   99  107 1   
   108   99  108 1   
   109  109  110 1   
   110  109  117 1   
   111  110  111 1   
   112  110  113 1   
   113  110  118 1   
   114  111  112 2   
   115  111  123 1   
   116  113  114 1   
   117  113  119 1   
   118  113  120 1   
   119  114  115 1   
   120  114  116 2   
   121  115  121 1   
   122  115  122 1   
   123  123  124 1   
   124  123  135 1   
   125  124  125 1   
   126  124  127 1   
   127  124  136 1   
   128  125  126 2   
   129  125  144 1   
   130  127  128 1   
   131  127  137 1   
   132  127  138 1   
   133  128  129 ar  
   134  128  130 ar  
   135  129  131 ar  
   136  129  139 1   
   137  130  132 ar  
   138  130  140 1   
   139  131  133 ar  
   140  131  141 1   
   141  132  133 ar  
   142  132  142 1   
   143  133  134 1   
   144  134  143 1   
   145  144  145 1   
   146  144  153 1   
   147  145  146 1   
   148  145  148 1   
   149  145  154 1   
   150  146  147 2   
   151  146  159 1   
   152  148  149 1   
   153  148  155 1   
   154  148  156 1   
   155  149  150 1   
   156  149  157 1   
   157  149  158 1   
   158  150  151 1   
   159  150  152 1   
   160  159  160 1   
   161  159  168 1   
   162  160  161 1   
   163  160  163 1   
   164  160  169 1   
   165  161  162 2   
   166  161  174 1   
   167  163  164 1   
   168  163  170 1   
   169  163  171 1   
   170  164  165 1   
   171  164  172 1   
   172  164  173 1   
   173  165  166 1   
   174  165  167 1   
   175  174  175 1   
   176  174  179 1   
   177  175  176 1   
   178  175  177 1   
   179  175  178 1   
   180  181  182 1   
   181  181  183 1   
   182  184  185 1   
   183  184  186 1   
   184  187  188 1   
   185  187  189 1   
   186  190  191 1   
   187  190  192 1   
   188  193  194 1   
   189  193  195 1   
@<TRIPOS>SUBSTRUCTURE
     1 MOL         1 TEMP              0 ****  ****    0 ROOT
