@<TRIPOS>MOLECULE
MOL
  178   175     1     0     0
SMALL
resp


@<TRIPOS>ATOM
      1 C1          4.9470   -1.9690    2.8320 c3        1 MOL     -0.423238
      2 C2          6.2680   -1.2540    2.7880 c         1 MOL      0.616344
      3 O1          6.4030   -0.1890    2.1560 o         1 MOL     -0.566639
      4 H1          4.5120   -1.8670    3.8260 hc        1 MOL      0.133788
      5 H2          4.2730   -1.5340    2.0950 hc        1 MOL      0.133788
      6 H3          5.0970   -3.0250    2.6080 hc        1 MOL      0.133788
      7 N1          7.3750   -1.8200    3.3720 n         1 MOL     -0.557222
      8 C3          8.7220   -1.3590    2.9720 c3        1 MOL      0.192662
      9 C4          8.9000   -1.6020    1.4240 c         1 MOL      0.394588
     10 O2          8.9720   -2.7400    0.8890 o         1 MOL     -0.534860
     11 C5          9.8140   -2.2680    3.7050 c3        1 MOL     -0.333893
     12 C6         11.3060   -1.7990    3.5640 c         1 MOL      0.766018
     13 O3         11.6450   -1.1550    2.5330 o         1 MOL     -0.737544
     14 O4         12.0660   -1.9930    4.5250 o         1 MOL     -0.737544
     15 H4          7.2640   -2.4670    4.1390 hn        1 MOL      0.299880
     16 H5          8.8080   -0.2930    3.1650 h1        1 MOL      0.039635
     17 H6          9.8280   -3.3280    3.4510 hc        1 MOL      0.067682
     18 H7          9.5460   -2.1790    4.7520 hc        1 MOL      0.067682
     19 N2          9.0520   -0.4810    0.6970 n         1 MOL     -0.174199
     20 C7          9.1770   -0.4020   -0.7500 c3        1 MOL      0.026673
     21 C8          7.9140   -0.5580   -1.5760 c         1 MOL      0.391734
     22 O5          8.0300   -0.6070   -2.8220 o         1 MOL     -0.530415
     23 C9          9.8600    0.9540   -1.0220 c3        1 MOL     -0.192083
     24 H8          8.9770    0.4080    1.1780 hn        1 MOL      0.182977
     25 H9          9.8140   -1.2570   -0.9900 h1        1 MOL      0.116361
     26 H10        10.7430    1.0180   -0.3820 hc        1 MOL      0.054215
     27 H11        10.1880    1.1680   -2.0360 hc        1 MOL      0.054215
     28 H12         9.1860    1.7610   -0.7550 hc        1 MOL      0.054215
     29 N3          6.7530   -0.5430   -0.9000 n         1 MOL     -0.276157
     30 C10         5.4300   -0.9230   -1.4210 c3        1 MOL      0.169054
     31 C11         4.9990   -0.2120   -2.7170 c         1 MOL      0.383002
     32 O6          4.4830   -0.7990   -3.6460 o         1 MOL     -0.486865
     33 C12         5.3210   -2.4320   -1.5280 c3        1 MOL     -0.195517
     34 C13         3.8870   -2.8840   -1.6420 c         1 MOL      0.726703
     35 O7          3.5340   -3.9290   -2.1570 o         1 MOL     -0.763296
     36 O8          2.9830   -2.2060   -1.1290 o         1 MOL     -0.763296
     37 H13         6.7840   -0.2460    0.0600 hn        1 MOL      0.183970
     38 H14         4.7540   -0.5600   -0.6550 h1        1 MOL     -0.005476
     39 H15         5.6520   -2.8670   -0.5800 hc        1 MOL      0.075662
     40 H16         6.0000   -2.7550   -2.3110 hc        1 MOL      0.075662
     41 N4          5.4390    1.0380   -2.8480 n         1 MOL     -0.054601
     42 C14         5.3210    1.9000   -4.0400 c3        1 MOL     -0.401463
     43 C15         3.9910    2.5460   -4.2960 c         1 MOL      0.583170
     44 O9          3.8380    3.0940   -5.3980 o         1 MOL     -0.569791
     45 H17         5.9590    1.3660   -2.0410 hn        1 MOL      0.146305
     46 H18         5.6380    1.3020   -4.8880 h1        1 MOL      0.161749
     47 H19         6.0430    2.7110   -3.9090 h1        1 MOL      0.161749
     48 N5          3.1760    2.6130   -3.3050 n         1 MOL     -0.350966
     49 C16         1.9800    3.5170   -3.2400 c3        1 MOL      0.162626
     50 C17         2.1300    4.7950   -2.3870 c         1 MOL      0.535892
     51 O10         3.1620    5.3210   -2.2670 o         1 MOL     -0.520760
     52 C18         0.8450    2.5590   -2.7820 c3        1 MOL     -0.271594
     53 C19        -0.6000    3.0300   -3.1340 c         1 MOL      0.667212
     54 N6         -1.3990    3.3290   -2.1370 n         1 MOL     -0.673297
     55 O11        -0.9700    3.1510   -4.2470 o         1 MOL     -0.573927
     56 H20         3.4680    2.2010   -2.4240 hn        1 MOL      0.194772
     57 H21         1.7660    3.8530   -4.2530 h1        1 MOL      0.047866
     58 H22         0.8660    2.4120   -1.7110 hc        1 MOL      0.107620
     59 H23         0.9720    1.5660   -3.2140 hc        1 MOL      0.107620
     60 H24        -1.1110    3.2780   -1.1710 hn        1 MOL      0.308925
     61 H25        -2.2480    3.7910   -2.4440 hn        1 MOL      0.308925
     62 N7          0.9600    5.3190   -1.9230 n         1 MOL     -0.288976
     63 C20         0.7640    6.6430   -1.3250 c3        1 MOL     -0.189738
     64 C21        -0.5620    6.8090   -0.6540 c         1 MOL      0.454291
     65 O12        -1.5240    6.3630   -1.2320 o         1 MOL     -0.452206
     66 H26         0.1490    4.8060   -2.2140 hn        1 MOL      0.166579
     67 H27         0.8230    7.4410   -2.0680 h1        1 MOL      0.097605
     68 H28         1.5260    6.8230   -0.5700 h1        1 MOL      0.097605
     69 N8         -0.6310    7.4080    0.4870 n         1 MOL     -0.209713
     70 C22        -1.8920    7.5250    1.2430 c3        1 MOL     -0.417857
     71 C23        -2.4210    6.1160    1.7200 c         1 MOL      0.602375
     72 O13        -3.5820    6.0120    2.0410 o         1 MOL     -0.538788
     73 C24        -1.8310    8.4250    2.5000 c3        1 MOL      0.542499
     74 C25        -1.0830    7.8250    3.7190 c3        1 MOL     -0.221880
     75 O14        -1.2820    9.6930    2.1600 oh        1 MOL     -0.627794
     76 H29         0.2150    7.8760    0.7910 hn        1 MOL      0.233297
     77 H30        -2.7010    7.9190    0.6330 h1        1 MOL      0.172517
     78 H31        -2.8160    8.6530    2.9060 h1        1 MOL      0.034776
     79 H32        -0.3810    9.4920    1.8870 ho        1 MOL      0.364070
     80 H33        -1.6840    7.0460    4.1810 hc        1 MOL      0.036745
     81 H34        -0.1200    7.3630    3.4710 hc        1 MOL      0.036745
     82 H35        -0.9900    8.6890    4.3750 hc        1 MOL      0.036745
     83 N9         -1.6150    5.0010    1.8070 n         1 MOL     -0.583905
     84 C26        -2.0200    3.6330    2.2200 c3        1 MOL      0.221616
     85 C27        -1.6280    2.6250    1.0890 c         1 MOL      0.598263
     86 O15        -0.5290    2.7400    0.5370 o         1 MOL     -0.577762
     87 C28        -1.4600    3.2920    3.6260 c3        1 MOL      0.137700
     88 C29        -2.3160    4.1390    4.6450 c3        1 MOL     -0.108272
     89 C30        -1.5390    1.8230    4.0480 c3        1 MOL     -0.545161
     90 C31        -3.7100    3.4940    4.9290 c3        1 MOL     -0.124209
     91 H36        -0.6160    5.0640    1.6500 hn        1 MOL      0.275979
     92 H37        -3.1110    3.6010    2.1460 h1        1 MOL      0.063371
     93 H38        -0.4230    3.6390    3.5780 hc        1 MOL      0.016716
     94 H39        -2.5550    5.1430    4.3050 hc        1 MOL      0.054952
     95 H40        -1.7450    4.1960    5.5690 hc        1 MOL      0.054952
     96 H41        -1.5450    1.8280    5.1390 hc        1 MOL      0.152469
     97 H42        -2.3640    1.2690    3.5950 hc        1 MOL      0.152469
     98 H43        -0.6250    1.3550    3.6970 hc        1 MOL      0.152469
     99 H44        -4.2300    4.1050    5.6760 hc        1 MOL      0.030909
    100 H45        -4.2440    3.5170    3.9800 hc        1 MOL      0.030909
    101 H46        -3.5390    2.4820    5.3050 hc        1 MOL      0.030909
    102 N10        -2.4070    1.5620    0.9560 n         1 MOL     -0.635320
    103 C32        -1.9730    0.3050    0.2670 c3        1 MOL      0.386807
    104 C33        -3.2260   -0.4140   -0.2690 c         1 MOL      0.365434
    105 O16        -3.2450   -1.6000   -0.6130 o         1 MOL     -0.410635
    106 C34        -1.2620   -0.6250    1.2170 c3        1 MOL     -0.199217
    107 C35        -0.5570   -1.7950    0.4200 c         1 MOL      0.706593
    108 O17        -0.1340   -1.6760   -0.7510 o         1 MOL     -0.751620
    109 O18        -0.3000   -2.8710    1.0120 o         1 MOL     -0.751620
    110 H47        -3.2180    1.5660    1.5600 hn        1 MOL      0.285075
    111 H48        -1.3880    0.5450   -0.6170 h1        1 MOL      0.012973
    112 H49        -2.0190   -0.9950    1.9090 hc        1 MOL      0.054523
    113 H50        -0.5550   -0.0960    1.8510 hc        1 MOL      0.054523
    114 N11        -4.3350    0.3210   -0.3910 n         1 MOL     -0.409121
    115 C36        -5.7640   -0.1110   -0.7380 c3        1 MOL      0.263610
    116 C37        -6.2630   -1.3770    0.0560 c         1 MOL      0.162057
    117 O19        -6.1230   -1.3700    1.3490 o         1 MOL     -0.487461
    118 C38        -6.6720    1.1050   -0.7440 c3        1 MOL     -0.210255
    119 C39        -8.0730    0.8920   -1.2190 ca        1 MOL      0.035396
    120 C40        -8.3310    0.9960   -2.5750 ca        1 MOL     -0.129846
    121 C41        -9.0360    0.4950   -0.2360 ca        1 MOL     -0.129846
    122 C42        -9.6410    0.7150   -3.0210 ca        1 MOL     -0.102897
    123 C43       -10.3720    0.3380   -0.6400 ca        1 MOL     -0.102897
    124 C44       -10.6740    0.4370   -2.0530 ca        1 MOL     -0.168371
    125 H51        -4.1720    1.3060   -0.2320 hn        1 MOL      0.193995
    126 H52        -5.6820   -0.4770   -1.7510 h1        1 MOL      0.008897
    127 H53        -6.2090    1.8800   -1.3410 hc        1 MOL      0.091146
    128 H54        -6.6740    1.3970    0.3050 hc        1 MOL      0.091146
    129 H55        -7.6030    1.3480   -3.2920 ha        1 MOL      0.137773
    130 H56        -8.8110    0.3680    0.8170 ha        1 MOL      0.137773
    131 H57        -9.7760    0.7970   -4.0900 ha        1 MOL      0.117050
    132 H58       -11.0710    0.0830    0.1450 ha        1 MOL      0.117050
    133 H59       -11.7030    0.3120   -2.3460 ha        1 MOL      0.121726
    134 N12        -6.9320   -2.3670   -0.5720 n         1 MOL      0.091434
    135 C45        -7.5410   -3.4430    0.2130 c3        1 MOL     -0.013535
    136 C46        -6.7580   -4.3480    1.0690 c         1 MOL      0.258854
    137 O20        -7.4050   -4.9900    1.9030 o         1 MOL     -0.486413
    138 C47        -8.3100   -4.2320   -0.7800 c3        1 MOL      0.088192
    139 C48        -8.5400   -3.3380   -2.0320 c3        1 MOL     -0.048517
    140 C49        -7.3580   -2.3990   -1.9240 c3        1 MOL     -0.161887
    141 H60        -8.3020   -2.9360    0.8050 h1        1 MOL      0.070980
    142 H61        -7.7450   -5.1440   -1.0160 hc        1 MOL      0.006604
    143 H62        -9.2600   -4.6020   -0.3780 hc        1 MOL      0.006604
    144 H63        -8.6600   -3.9840   -2.9070 hc        1 MOL      0.030597
    145 H64        -9.5190   -2.8830   -1.9110 hc        1 MOL      0.030597
    146 H65        -6.5150   -2.6750   -2.5590 h1        1 MOL      0.077247
    147 H66        -7.6940   -1.3880   -2.1650 h1        1 MOL      0.077247
    148 N13        -5.4110   -4.3930    0.9020 n         1 MOL     -0.125979
    149 C50        -4.4680   -5.1550    1.7980 c3        1 MOL     -0.233770
    150 C51        -4.5180   -4.7030    3.2610 c         1 MOL      0.526646
    151 O21        -4.3230   -5.5740    4.1160 o         1 MOL     -0.558086
    152 C52        -3.0220   -4.9860    1.2650 c3        1 MOL      0.226555
    153 C53        -2.9470   -5.4150   -0.1940 c3        1 MOL     -0.184515
    154 C54        -1.5720   -5.2700   -0.9300 c         1 MOL      0.760906
    155 O22        -0.5260   -5.6550   -0.4450 o         1 MOL     -0.764324
    156 O23        -1.5950   -4.6710   -2.0350 o         1 MOL     -0.764324
    157 H67        -5.0360   -3.8890    0.1120 hn        1 MOL      0.207626
    158 H68        -4.6630   -6.2220    1.7980 h1        1 MOL      0.126150
    159 H69        -2.2550   -5.5410    1.8130 hc        1 MOL     -0.004105
    160 H70        -2.8180   -3.9110    1.2930 hc        1 MOL     -0.004105
    161 H71        -3.6860   -4.8090   -0.7140 hc        1 MOL     -0.001428
    162 H72        -3.1730   -6.4880   -0.2260 hc        1 MOL     -0.001428
    163 N14        -4.7790   -3.4450    3.5310 n         1 MOL     -0.298561
    164 C55        -4.3320   -2.8570    4.8400 c3        1 MOL     -0.176334
    165 H73        -4.1860   -3.6560    5.5650 h1        1 MOL      0.089717
    166 H74        -3.3940   -2.3210    4.6960 h1        1 MOL      0.089717
    167 H75        -5.0920   -2.1670    5.2070 h1        1 MOL      0.089717
    168 H76        -5.0210   -2.8450    2.7570 hn        1 MOL      0.262587
    169 Ca1         1.0610   -3.8600   -1.3690 Ca        1 MOL      1.793070
    170 O24         0.3700   -3.2480   -3.8240 oh        1 MOL     -0.792955
    171 H77         0.0430   -3.8370   -4.5090 ho        1 MOL      0.389554
    172 H78         0.4900   -2.4140   -4.2630 ho        1 MOL      0.389554
    173 O25         1.0300   -6.0990   -3.1600 oh        1 MOL     -0.792955
    174 H79         0.1400   -6.1960   -3.4850 ho        1 MOL      0.389554
    175 H80         1.5790   -6.4890   -3.8360 ho        1 MOL      0.389554
    176 O26         2.8020   -4.9940    0.4960 oh        1 MOL     -0.792955
    177 H81         2.7350   -5.9480    0.3830 ho        1 MOL      0.389554
    178 H82         3.0740   -4.8800    1.4110 ho        1 MOL      0.389554
@<TRIPOS>BOND
     1    1    2 1   
     2    1    4 1   
     3    1    5 1   
     4    1    6 1   
     5    2    3 2   
     6    2    7 1   
     7    7    8 1   
     8    7   15 1   
     9    8    9 1   
    10    8   11 1   
    11    8   16 1   
    12    9   10 2   
    13    9   19 1   
    14   11   12 1   
    15   11   17 1   
    16   11   18 1   
    17   12   13 1   
    18   12   14 1   
    19   19   20 1   
    20   19   24 1   
    21   20   21 1   
    22   20   23 1   
    23   20   25 1   
    24   21   22 2   
    25   21   29 1   
    26   23   26 1   
    27   23   27 1   
    28   23   28 1   
    29   29   30 1   
    30   29   37 1   
    31   30   31 1   
    32   30   33 1   
    33   30   38 1   
    34   31   32 2   
    35   31   41 1   
    36   33   34 1   
    37   33   39 1   
    38   33   40 1   
    39   34   35 1   
    40   34   36 1   
    41   41   42 1   
    42   41   45 1   
    43   42   43 1   
    44   42   46 1   
    45   42   47 1   
    46   43   44 2   
    47   43   48 1   
    48   48   49 1   
    49   48   56 1   
    50   49   50 1   
    51   49   52 1   
    52   49   57 1   
    53   50   51 2   
    54   50   62 1   
    55   52   53 1   
    56   52   58 1   
    57   52   59 1   
    58   53   54 1   
    59   53   55 2   
    60   54   60 1   
    61   54   61 1   
    62   62   63 1   
    63   62   66 1   
    64   63   64 1   
    65   63   67 1   
    66   63   68 1   
    67   64   65 2   
    68   64   69 1   
    69   69   70 1   
    70   69   76 1   
    71   70   71 1   
    72   70   73 1   
    73   70   77 1   
    74   71   72 2   
    75   71   83 1   
    76   73   74 1   
    77   73   75 1   
    78   73   78 1   
    79   74   80 1   
    80   74   81 1   
    81   74   82 1   
    82   75   79 1   
    83   83   84 1   
    84   83   91 1   
    85   84   85 1   
    86   84   87 1   
    87   84   92 1   
    88   85   86 2   
    89   85  102 1   
    90   87   88 1   
    91   87   89 1   
    92   87   93 1   
    93   88   90 1   
    94   88   94 1   
    95   88   95 1   
    96   89   96 1   
    97   89   97 1   
    98   89   98 1   
    99   90   99 1   
   100   90  100 1   
   101   90  101 1   
   102  102  103 1   
   103  102  110 1   
   104  103  104 1   
   105  103  106 1   
   106  103  111 1   
   107  104  105 2   
   108  104  114 1   
   109  106  107 1   
   110  106  112 1   
   111  106  113 1   
   112  107  108 1   
   113  107  109 1   
   114  114  115 1   
   115  114  125 1   
   116  115  116 1   
   117  115  118 1   
   118  115  126 1   
   119  116  117 2   
   120  116  134 1   
   121  118  119 1   
   122  118  127 1   
   123  118  128 1   
   124  119  120 ar  
   125  119  121 ar  
   126  120  122 ar  
   127  120  129 1   
   128  121  123 ar  
   129  121  130 1   
   130  122  124 ar  
   131  122  131 1   
   132  123  124 ar  
   133  123  132 1   
   134  124  133 1   
   135  134  135 1   
   136  134  140 1   
   137  135  136 1   
   138  135  138 1   
   139  135  141 1   
   140  136  137 2   
   141  136  148 1   
   142  138  139 1   
   143  138  142 1   
   144  138  143 1   
   145  139  140 1   
   146  139  144 1   
   147  139  145 1   
   148  140  146 1   
   149  140  147 1   
   150  148  149 1   
   151  148  157 1   
   152  149  150 1   
   153  149  152 1   
   154  149  158 1   
   155  150  151 2   
   156  150  163 1   
   157  152  153 1   
   158  152  159 1   
   159  152  160 1   
   160  153  154 1   
   161  153  161 1   
   162  153  162 1   
   163  154  155 1   
   164  154  156 1   
   165  163  164 1   
   166  163  168 1   
   167  164  165 1   
   168  164  166 1   
   169  164  167 1   
   170  170  171 1   
   171  170  172 1   
   172  173  174 1   
   173  173  175 1   
   174  176  177 1   
   175  176  178 1   
@<TRIPOS>SUBSTRUCTURE
     1 MOL         1 TEMP              0 ****  ****    0 ROOT
