@<TRIPOS>MOLECULE
MOL
  198   191     1     0     0
SMALL
resp


@<TRIPOS>ATOM
      1 C1          3.9330    6.5750    0.0770 c3        1 MOL     -0.423899
      2 C2          5.3880    6.2290   -0.1540 c         1 MOL      0.759368
      3 O1          6.1960    7.0080    0.3340 o         1 MOL     -0.607332
      4 H1          3.8570    7.2980    0.8900 hc        1 MOL      0.103293
      5 H2          3.5120    7.0060   -0.8310 hc        1 MOL      0.103293
      6 H3          3.3830    5.6730    0.3410 hc        1 MOL      0.103293
      7 N1          5.6290    5.1330   -0.7950 n         1 MOL     -0.698930
      8 C3          6.8980    4.4900   -0.9440 c3        1 MOL      0.504102
      9 C4          7.6380    3.9680    0.2740 c         1 MOL      0.293244
     10 O2          7.1710    4.2270    1.3860 o         1 MOL     -0.479223
     11 C5          7.8230    5.2960   -1.9110 c3        1 MOL     -0.427486
     12 C6          8.6790    4.3820   -2.8030 c         1 MOL      0.707364
     13 O3          8.7030    3.1320   -2.6500 o         1 MOL     -0.685241
     14 O4          9.2720    4.8790   -3.7930 o         1 MOL     -0.685241
     15 H4          4.8680    4.7250   -1.3180 hn        1 MOL      0.338731
     16 H5          6.5790    3.5410   -1.3740 h1        1 MOL      0.000192
     17 H6          8.2580    6.1170   -1.3530 hc        1 MOL      0.080669
     18 H7          7.2190    5.8340   -2.6420 hc        1 MOL      0.080669
     19 N2          8.7830    3.2720    0.0470 n         1 MOL     -0.305124
     20 C7          9.5630    2.4970    1.0740 c3        1 MOL     -0.052642
     21 C8          8.8770    1.3010    1.7060 c         1 MOL      0.555192
     22 O5          9.2180    0.6300    2.6580 o         1 MOL     -0.531076
     23 C9         10.0870    3.3590    2.2620 c3        1 MOL      0.014754
     24 C10        11.1570    4.3750    1.8150 c3        1 MOL     -0.011080
     25 C11        10.7620    5.5620    0.9540 c3        1 MOL      0.072926
     26 C12        11.8250    6.6020    1.1050 c3        1 MOL     -0.107624
     27 N3         11.4110    7.8590    0.3620 n4        1 MOL     -0.202780
     28 H8          9.1180    3.2730   -0.9050 hn        1 MOL      0.223715
     29 H9         10.4370    2.0310    0.6180 h1        1 MOL      0.104198
     30 H10        10.4840    2.7860    3.0960 hc        1 MOL      0.042213
     31 H11         9.2880    3.9020    2.7580 hc        1 MOL      0.042213
     32 H12        11.9660    3.7640    1.4220 hc        1 MOL     -0.007905
     33 H13        11.6070    4.8190    2.7010 hc        1 MOL     -0.007905
     34 H14         9.7490    5.8470    1.2760 hc        1 MOL      0.013166
     35 H15        10.6270    5.1930   -0.0590 hc        1 MOL      0.013166
     36 H16        12.7190    6.1860    0.6350 hx        1 MOL      0.109952
     37 H17        11.9970    6.7850    2.1660 hx        1 MOL      0.109952
     38 H18        11.2500    7.7440   -0.6310 hn        1 MOL      0.289596
     39 H19        10.4790    7.9870    0.7370 hn        1 MOL      0.289596
     40 H20        11.9540    8.6800    0.5590 hn        1 MOL      0.289596
     41 N4          7.7510    0.9710    1.0350 n         1 MOL     -0.678981
     42 C13         7.0270   -0.3300    1.0000 c3        1 MOL      0.639139
     43 C14         6.3790   -0.4610   -0.3750 c         1 MOL      0.250901
     44 O6          5.5690    0.3640   -0.7010 o         1 MOL     -0.514052
     45 C15         6.0250   -0.3440    2.0910 c3        1 MOL     -0.126727
     46 C16         5.4350   -1.6490    2.5310 c         1 MOL      0.606532
     47 O7          5.5180   -2.7060    1.8210 o         1 MOL     -0.671175
     48 O8          4.7440   -1.6940    3.5830 o         1 MOL     -0.671175
     49 H21         7.2740    1.7180    0.5540 hn        1 MOL      0.313585
     50 H22         7.6710   -1.1940    1.1680 h1        1 MOL     -0.046022
     51 H23         5.1720    0.1850    1.6680 hc        1 MOL      0.005805
     52 H24         6.4660    0.0670    3.0030 hc        1 MOL      0.005805
     53 N5          6.5800   -1.4760   -1.1680 n         1 MOL     -0.251791
     54 C17         7.2980   -2.7230   -1.0150 c3        1 MOL     -0.307007
     55 C18         6.4330   -3.8010   -1.6000 c         1 MOL      0.652670
     56 O9          6.7360   -4.4370   -2.5780 o         1 MOL     -0.577536
     57 H25         5.9700   -1.3470   -1.9580 hn        1 MOL      0.241398
     58 H26         7.5820   -2.9000    0.0260 h1        1 MOL      0.143684
     59 H27         8.2180   -2.7930   -1.5940 h1        1 MOL      0.143684
     60 N6          5.4410   -4.1650   -0.7310 n         1 MOL     -0.311289
     61 C19         4.4940   -5.2960   -0.9510 c3        1 MOL      0.268159
     62 C20         3.0360   -4.9320   -0.5670 c         1 MOL      0.274038
     63 O10         2.8330   -4.1690    0.3170 o         1 MOL     -0.369127
     64 C21         5.0360   -6.5350   -0.2450 c3        1 MOL     -0.335813
     65 C22         5.3250   -6.4370    1.2520 c         1 MOL      0.774593
     66 O11         6.0570   -7.3090    1.7730 o         1 MOL     -0.708866
     67 O12         4.9550   -5.4860    1.9040 o         1 MOL     -0.708866
     68 H28         5.4550   -3.6760    0.1530 hn        1 MOL      0.151984
     69 H29         4.4390   -5.5940   -1.9950 h1        1 MOL     -0.017286
     70 H30         5.9030   -6.8350   -0.8320 hc        1 MOL      0.067753
     71 H31         4.2980   -7.3340   -0.3720 hc        1 MOL      0.067753
     72 N7          2.0640   -5.4560   -1.3590 n         1 MOL     -0.370574
     73 C23         0.6730   -4.8990   -1.3230 c3        1 MOL     -0.262312
     74 C24         0.4460   -3.5360   -1.8790 c         1 MOL      0.587112
     75 O13        -0.8030   -3.2030   -2.0390 o         1 MOL     -0.596194
     76 H32         2.3650   -6.1430   -2.0310 hn        1 MOL      0.312378
     77 H33         0.4390   -4.8110   -0.2580 h1        1 MOL      0.151065
     78 H34         0.0090   -5.6030   -1.8100 h1        1 MOL      0.151065
     79 N8          1.5050   -2.7740   -2.1650 n         1 MOL     -0.230964
     80 C25         1.4580   -1.5720   -2.9480 c3        1 MOL     -0.067824
     81 C26         1.1820   -0.3890   -2.0550 c         1 MOL      0.365584
     82 O14         1.7970   -0.3130   -1.0100 o         1 MOL     -0.450145
     83 C27         2.7130   -1.3960   -3.7750 c3        1 MOL      0.237938
     84 C28         4.0140   -1.5380   -3.0370 c3        1 MOL     -0.187892
     85 O15         2.6480   -2.3360   -4.8250 oh        1 MOL     -0.654237
     86 H35         2.4200   -3.1180   -1.9000 hn        1 MOL      0.211795
     87 H36         0.6620   -1.7380   -3.6750 h1        1 MOL      0.141019
     88 H37         2.7230   -0.3990   -4.1990 h1        1 MOL      0.036092
     89 H38         3.5020   -2.4320   -5.2470 ho        1 MOL      0.429766
     90 H39         4.0660   -2.5480   -2.6430 hc        1 MOL      0.058385
     91 H40         4.8280   -1.3190   -3.7340 hc        1 MOL      0.058385
     92 H41         4.0050   -0.8610   -2.1810 hc        1 MOL      0.058385
     93 N9          0.0400    0.2950   -2.2120 n         1 MOL     -0.181711
     94 C29        -0.5700    1.1970   -1.2670 c3        1 MOL     -0.049683
     95 C30        -1.6650    0.5150   -0.4890 c         1 MOL      0.468214
     96 O16        -2.1940    1.0210    0.5110 o         1 MOL     -0.553193
     97 C31        -1.0750    2.4060   -2.0170 c3        1 MOL      0.207472
     98 C32        -2.2680    1.9980   -2.9590 c3        1 MOL      0.233492
     99 C33         0.0830    3.2410   -2.6250 c3        1 MOL     -0.237995
    100 C34        -3.6730    2.3960   -2.4590 c3        1 MOL     -0.253696
    101 H42        -0.4260    0.1390   -3.1040 hn        1 MOL      0.164122
    102 H43         0.2180    1.4810   -0.5670 h1        1 MOL      0.082073
    103 H44        -1.5430    3.0500   -1.2820 hc        1 MOL     -0.010654
    104 H45        -2.2380    0.9490   -3.2660 hc        1 MOL     -0.059384
    105 H46        -2.1240    2.4970   -3.9150 hc        1 MOL     -0.059384
    106 H47        -0.3790    4.1650   -2.9640 hc        1 MOL      0.045577
    107 H48         0.7870    3.3470   -1.7960 hc        1 MOL      0.045577
    108 H49         0.5040    2.6220   -3.4080 hc        1 MOL      0.045577
    109 H50        -4.4120    1.9820   -3.1340 hc        1 MOL      0.063066
    110 H51        -3.8290    1.9840   -1.4530 hc        1 MOL      0.063066
    111 H52        -3.7030    3.4780   -2.4920 hc        1 MOL      0.063066
    112 N10        -2.0650   -0.6730   -0.8990 n         1 MOL     -0.424943
    113 C35        -3.4290   -1.1780   -0.5060 c3        1 MOL      0.142678
    114 C36        -4.4590   -1.0690   -1.7070 c         1 MOL      0.452828
    115 O17        -4.0000   -1.0060   -2.8410 o         1 MOL     -0.503432
    116 C37        -3.3560   -2.6320    0.0560 c3        1 MOL      0.504430
    117 C38        -2.8820   -2.6460    1.4820 c3        1 MOL     -0.348432
    118 O18        -4.5810   -3.3160   -0.0740 oh        1 MOL     -0.687523
    119 H53        -1.6870   -0.9990   -1.7780 hn        1 MOL      0.259439
    120 H54        -3.9160   -0.6260    0.2980 h1        1 MOL      0.060702
    121 H55        -2.5060   -3.1540   -0.3960 h1        1 MOL     -0.082152
    122 H56        -4.3940   -4.2010    0.2460 ho        1 MOL      0.416016
    123 H57        -3.5230   -2.0180    2.1020 hc        1 MOL      0.073901
    124 H58        -2.9550   -3.6760    1.8210 hc        1 MOL      0.073901
    125 H59        -1.8350   -2.3430    1.5540 hc        1 MOL      0.073901
    126 N11        -5.7530   -0.9660   -1.5330 n         1 MOL     -0.506228
    127 C39        -6.6620   -0.4610   -2.6040 c3        1 MOL     -0.007617
    128 C40        -7.9040    0.2960   -2.0780 c         1 MOL      0.570573
    129 O19        -8.2750    1.3420   -2.6140 o         1 MOL     -0.547129
    130 C41        -7.1380   -1.6920   -3.4130 c3        1 MOL      0.411332
    131 C42        -8.1370   -1.3070   -4.4900 c3        1 MOL     -0.541278
    132 O20        -7.6990   -2.6980   -2.5540 oh        1 MOL     -0.635184
    133 H60        -6.1010   -1.1710   -0.6050 hn        1 MOL      0.295650
    134 H61        -6.1530    0.2420   -3.2680 h1        1 MOL      0.097594
    135 H62        -6.2460   -2.0910   -3.9100 h1        1 MOL      0.016860
    136 H63        -6.9860   -3.3090   -2.3650 ho        1 MOL      0.393036
    137 H64        -8.3180   -2.1930   -5.0920 hc        1 MOL      0.149785
    138 H65        -9.0980   -1.0870   -4.0240 hc        1 MOL      0.149785
    139 H66        -7.7450   -0.4780   -5.0800 hc        1 MOL      0.149785
    140 N12        -8.4630   -0.2170   -0.9500 n         1 MOL     -0.488166
    141 C43        -9.8140    0.2160   -0.5250 c3        1 MOL      0.187570
    142 C44        -9.8480    0.6130    0.9420 c         1 MOL      0.275512
    143 O21        -9.3550   -0.1460    1.8050 o         1 MOL     -0.444384
    144 C45       -10.7810   -1.0010   -0.5440 c3        1 MOL     -0.503258
    145 C46       -12.1950   -0.6500   -0.0900 c3        1 MOL      0.094588
    146 C47       -12.9230    0.2220   -1.1040 c3        1 MOL      0.056792
    147 C48       -14.4090    0.2620   -0.6790 c3        1 MOL     -0.007475
    148 N13       -15.2140    1.0460   -1.6440 n4        1 MOL     -0.207713
    149 H67        -7.9420   -0.9350   -0.4530 hn        1 MOL      0.308947
    150 H68       -10.2250    0.9890   -1.1740 h1        1 MOL      0.045940
    151 H69       -10.3800   -1.7050    0.1840 hc        1 MOL      0.182278
    152 H70       -10.8190   -1.3860   -1.5570 hc        1 MOL      0.182278
    153 H71       -12.2050   -0.2080    0.9100 hc        1 MOL      0.023009
    154 H72       -12.7830   -1.5430    0.1170 hc        1 MOL      0.023009
    155 H73       -12.8140   -0.3310   -2.0350 hc        1 MOL     -0.011720
    156 H74       -12.5860    1.2530   -1.0260 hc        1 MOL     -0.011720
    157 H75       -14.4440    0.7210    0.3130 hx        1 MOL      0.083215
    158 H76       -14.8800   -0.7130   -0.6110 hx        1 MOL      0.083215
    159 H77       -14.9980    2.0040   -1.4160 hn        1 MOL      0.274561
    160 H78       -14.9680    0.9860   -2.6150 hn        1 MOL      0.274561
    161 H79       -16.2120    0.9450   -1.4900 hn        1 MOL      0.274561
    162 N14       -10.3400    1.8310    1.2620 n         1 MOL     -0.270574
    163 C49       -10.8060    2.0620    2.6720 c3        1 MOL      0.485697
    164 C50        -9.6470    2.0960    3.7010 c         1 MOL      0.258674
    165 O22        -9.8560    1.4190    4.6950 o         1 MOL     -0.521141
    166 C51       -11.6790    3.3350    2.8220 c3        1 MOL     -0.123812
    167 C52       -13.1460    2.9760    2.3340 c3        1 MOL     -0.227853
    168 C53       -14.1110    4.1490    2.2380 c         1 MOL      0.728442
    169 O23       -14.1290    5.0050    1.2930 o         1 MOL     -0.713165
    170 O24       -14.9990    4.2240    3.0900 o         1 MOL     -0.713165
    171 H80       -10.7400    2.4250    0.5510 hn        1 MOL      0.244076
    172 H81       -11.4290    1.2140    2.9950 h1        1 MOL     -0.033791
    173 H82       -11.3330    4.1510    2.1990 hc        1 MOL      0.049209
    174 H83       -11.7480    3.5310    3.8920 hc        1 MOL      0.049209
    175 H84       -13.4810    2.1730    2.9880 hc        1 MOL      0.017388
    176 H85       -13.0280    2.6100    1.3150 hc        1 MOL      0.017388
    177 N15        -8.5510    2.8260    3.5730 n         1 MOL     -0.371749
    178 C54        -8.1500    3.6900    2.3930 c3        1 MOL      0.125344
    179 H86        -8.8470    3.5280    1.5700 h1        1 MOL     -0.002688
    180 H87        -8.1720    4.7390    2.6860 h1        1 MOL     -0.002688
    181 H88        -7.1430    3.4230    2.0730 h1        1 MOL     -0.002688
    182 H89        -7.8870    2.6200    4.3140 hn        1 MOL      0.309864
    183 Ca1         3.1080   -3.7070    2.7940 Ca        1 MOL      1.738986
    184 O25         2.4800   -6.3750    3.3620 oh        1 MOL     -0.894747
    185 H90         3.2290   -6.7880    3.7870 ho        1 MOL      0.435173
    186 H91         1.7160   -6.7170    3.8340 ho        1 MOL      0.435173
    187 O26         4.1620   -4.3390    5.4130 oh        1 MOL     -0.894747
    188 H92         4.8690   -4.9310    5.6750 ho        1 MOL      0.435173
    189 H93         3.9370   -3.8610    6.2020 ho        1 MOL      0.435173
    190 O27         1.9040   -2.0820    4.5010 oh        1 MOL     -0.894747
    191 H94         0.9580   -2.0080    4.6270 ho        1 MOL      0.435173
    192 H95         2.2870   -1.6360    5.2550 ho        1 MOL      0.435173
    193 O28         2.4760   -1.3950    1.4090 oh        1 MOL     -0.894747
    194 H96         2.5000   -0.7040    2.0760 ho        1 MOL      0.435173
    195 H97         2.4270   -0.9310    0.5780 ho        1 MOL      0.435173
    196 O29         0.3800   -3.8720    2.4520 oh        1 MOL     -0.894747
    197 H98        -0.0550   -4.6160    2.0340 ho        1 MOL      0.435173
    198 H99        -0.0790   -3.7770    3.2920 ho        1 MOL      0.435173
@<TRIPOS>BOND
     1    1    2 1   
     2    1    4 1   
     3    1    5 1   
     4    1    6 1   
     5    2    3 2   
     6    2    7 1   
     7    7    8 1   
     8    7   15 1   
     9    8    9 1   
    10    8   11 1   
    11    8   16 1   
    12    9   10 2   
    13    9   19 1   
    14   11   12 1   
    15   11   17 1   
    16   11   18 1   
    17   12   13 1   
    18   12   14 1   
    19   19   20 1   
    20   19   28 1   
    21   20   21 1   
    22   20   23 1   
    23   20   29 1   
    24   21   22 2   
    25   21   41 1   
    26   23   24 1   
    27   23   30 1   
    28   23   31 1   
    29   24   25 1   
    30   24   32 1   
    31   24   33 1   
    32   25   26 1   
    33   25   34 1   
    34   25   35 1   
    35   26   27 1   
    36   26   36 1   
    37   26   37 1   
    38   27   38 1   
    39   27   39 1   
    40   27   40 1   
    41   41   42 1   
    42   41   49 1   
    43   42   43 1   
    44   42   45 1   
    45   42   50 1   
    46   43   44 2   
    47   43   53 1   
    48   45   46 1   
    49   45   51 1   
    50   45   52 1   
    51   46   47 1   
    52   46   48 1   
    53   53   54 1   
    54   53   57 1   
    55   54   55 1   
    56   54   58 1   
    57   54   59 1   
    58   55   56 2   
    59   55   60 1   
    60   60   61 1   
    61   60   68 1   
    62   61   62 1   
    63   61   64 1   
    64   61   69 1   
    65   62   63 2   
    66   62   72 1   
    67   64   65 1   
    68   64   70 1   
    69   64   71 1   
    70   65   66 1   
    71   65   67 1   
    72   72   73 1   
    73   72   76 1   
    74   73   74 1   
    75   73   77 1   
    76   73   78 1   
    77   74   75 2   
    78   74   79 1   
    79   79   80 1   
    80   79   86 1   
    81   80   81 1   
    82   80   83 1   
    83   80   87 1   
    84   81   82 2   
    85   81   93 1   
    86   83   84 1   
    87   83   85 1   
    88   83   88 1   
    89   84   90 1   
    90   84   91 1   
    91   84   92 1   
    92   85   89 1   
    93   93   94 1   
    94   93  101 1   
    95   94   95 1   
    96   94   97 1   
    97   94  102 1   
    98   95   96 2   
    99   95  112 1   
   100   97   98 1   
   101   97   99 1   
   102   97  103 1   
   103   98  100 1   
   104   98  104 1   
   105   98  105 1   
   106   99  106 1   
   107   99  107 1   
   108   99  108 1   
   109  100  109 1   
   110  100  110 1   
   111  100  111 1   
   112  112  113 1   
   113  112  119 1   
   114  113  114 1   
   115  113  116 1   
   116  113  120 1   
   117  114  115 2   
   118  114  126 1   
   119  116  117 1   
   120  116  118 1   
   121  116  121 1   
   122  117  123 1   
   123  117  124 1   
   124  117  125 1   
   125  118  122 1   
   126  126  127 1   
   127  126  133 1   
   128  127  128 1   
   129  127  130 1   
   130  127  134 1   
   131  128  129 2   
   132  128  140 1   
   133  130  131 1   
   134  130  132 1   
   135  130  135 1   
   136  131  137 1   
   137  131  138 1   
   138  131  139 1   
   139  132  136 1   
   140  140  141 1   
   141  140  149 1   
   142  141  142 1   
   143  141  144 1   
   144  141  150 1   
   145  142  143 2   
   146  142  162 1   
   147  144  145 1   
   148  144  151 1   
   149  144  152 1   
   150  145  146 1   
   151  145  153 1   
   152  145  154 1   
   153  146  147 1   
   154  146  155 1   
   155  146  156 1   
   156  147  148 1   
   157  147  157 1   
   158  147  158 1   
   159  148  159 1   
   160  148  160 1   
   161  148  161 1   
   162  162  163 1   
   163  162  171 1   
   164  163  164 1   
   165  163  166 1   
   166  163  172 1   
   167  164  165 2   
   168  164  177 1   
   169  166  167 1   
   170  166  173 1   
   171  166  174 1   
   172  167  168 1   
   173  167  175 1   
   174  167  176 1   
   175  168  169 1   
   176  168  170 1   
   177  177  178 1   
   178  177  182 1   
   179  178  179 1   
   180  178  180 1   
   181  178  181 1   
   182  184  185 1   
   183  184  186 1   
   184  187  188 1   
   185  187  189 1   
   186  190  191 1   
   187  190  192 1   
   188  193  194 1   
   189  193  195 1   
   190  196  197 1   
   191  196  198 1   
@<TRIPOS>SUBSTRUCTURE
     1 MOL         1 TEMP              0 ****  ****    0 ROOT
