@<TRIPOS>MOLECULE
MOL
  201   193     1     0     0
SMALL
resp


@<TRIPOS>ATOM
      1 C1         10.7560    5.9730   -3.4760 c3        1 MOL     -0.358359
      2 C2         10.3930    5.2250   -2.2750 c         1 MOL      0.639085
      3 O1         10.8720    4.0600   -2.0120 o         1 MOL     -0.628592
      4 H1         11.5830    5.4730   -3.9790 hc        1 MOL      0.100236
      5 H2          9.8980    6.0200   -4.1480 hc        1 MOL      0.100236
      6 H3         11.0570    6.9840   -3.1990 hc        1 MOL      0.100236
      7 N1          9.4210    5.7380   -1.5040 n         1 MOL     -0.417381
      8 C3          8.8190    4.9960   -0.3460 c3        1 MOL     -0.009354
      9 C4          7.8770    3.8770   -0.7780 c         1 MOL      0.746644
     10 O2          7.2210    3.9500   -1.8120 o         1 MOL     -0.565095
     11 C5          8.0320    5.9920    0.5550 c3        1 MOL     -0.138250
     12 C6          7.2720    7.1360   -0.0140 c         1 MOL      0.733303
     13 O3          6.0360    7.1330    0.0480 o         1 MOL     -0.638516
     14 O4          7.8980    8.1280   -0.4880 o         1 MOL     -0.638516
     15 H4          9.0160    6.6570   -1.6520 hn        1 MOL      0.233323
     16 H5          9.5990    4.5810    0.2900 h1        1 MOL      0.060343
     17 H6          8.7200    6.4720    1.2460 hc        1 MOL      0.017778
     18 H7          7.3250    5.3750    1.1110 hc        1 MOL      0.017778
     19 N2          7.8130    2.7850   -0.0230 n         1 MOL     -0.644948
     20 C7          7.0950    1.5610   -0.2110 c3        1 MOL      0.280733
     21 C8          5.7000    1.5060    0.4690 c         1 MOL      0.638649
     22 O5          5.6370    1.8140    1.6410 o         1 MOL     -0.576965
     23 C9          7.9340    0.2130    0.0180 c3        1 MOL     -0.132742
     24 C10         7.2330   -1.1170    0.1770 c3        1 MOL     -0.118313
     25 C11         8.0280   -2.2960    0.5070 c3        1 MOL      0.016347
     26 C12         7.1020   -3.5390    0.5420 c3        1 MOL      0.096056
     27 N3          7.7580   -4.6400    1.3820 n4        1 MOL     -0.362296
     28 H8          8.5090    2.7840    0.7030 hn        1 MOL      0.273136
     29 H9          6.9230    1.5070   -1.2880 h1        1 MOL      0.007530
     30 H10         8.5000    0.3930    0.9370 hc        1 MOL      0.050168
     31 H11         8.7130    0.2240   -0.7390 hc        1 MOL      0.050168
     32 H12         6.8500   -1.3870   -0.8100 hc        1 MOL      0.075541
     33 H13         6.4450   -0.9190    0.9160 hc        1 MOL      0.075541
     34 H14         8.4930   -2.3260    1.4880 hc        1 MOL      0.011218
     35 H15         8.8160   -2.5210   -0.2090 hc        1 MOL      0.011218
     36 H16         6.9470   -3.7390   -0.5170 hx        1 MOL      0.073240
     37 H17         6.1480   -3.2950    1.0040 hx        1 MOL      0.073240
     38 H18         7.9620   -4.3160    2.3200 hn        1 MOL      0.316113
     39 H19         7.1980   -5.4730    1.4030 hn        1 MOL      0.316113
     40 H20         8.6500   -4.8440    0.9400 hn        1 MOL      0.316113
     41 N4          4.7220    0.9820   -0.1990 n         1 MOL     -0.596310
     42 C13         3.5220    0.3860    0.3670 c3        1 MOL      0.510034
     43 C14         2.9490   -0.8290   -0.4860 c         1 MOL      0.088170
     44 O6          3.1500   -0.7960   -1.6940 o         1 MOL     -0.447050
     45 C15         2.3890    1.5150    0.3830 c3        1 MOL     -0.341239
     46 C16         1.4640    1.4330    1.6230 c         1 MOL      0.908983
     47 O7          0.3690    2.1190    1.7060 o         1 MOL     -0.802773
     48 O8          1.8290    0.8140    2.6660 o         1 MOL     -0.802773
     49 H21         4.9300    0.7760   -1.1640 hn        1 MOL      0.256083
     50 H22         3.7250    0.0450    1.3770 h1        1 MOL     -0.030881
     51 H23         1.7720    1.2980   -0.4830 hc        1 MOL      0.112308
     52 H24         2.7410    2.5540    0.3600 hc        1 MOL      0.112308
     53 N5          2.5050   -1.9190    0.0430 n         1 MOL     -0.273479
     54 C17         2.1900   -2.1770    1.4690 c3        1 MOL     -0.234561
     55 C18         2.0720   -3.6350    1.7650 c         1 MOL      0.524845
     56 O9          3.0610   -4.3420    1.8670 o         1 MOL     -0.537446
     57 H25         2.3560   -2.6980   -0.5890 hn        1 MOL      0.293806
     58 H26         1.3090   -1.6230    1.7750 h1        1 MOL      0.112873
     59 H27         3.0630   -1.7990    2.0090 h1        1 MOL      0.112873
     60 N6          0.8480   -4.1860    1.7960 n         1 MOL     -0.381037
     61 C19         0.5780   -5.5720    2.3030 c3        1 MOL     -0.076152
     62 C20        -0.7610   -6.2400    1.8410 c         1 MOL      0.486270
     63 O10        -1.8240   -5.6720    2.0010 o         1 MOL     -0.457254
     64 C21         0.5780   -5.4360    3.8540 c3        1 MOL     -0.279169
     65 C22         0.2480   -6.7760    4.4480 c         1 MOL      0.709919
     66 O11        -0.8310   -6.8570    5.1110 o         1 MOL     -0.706615
     67 O12         1.0390   -7.7590    4.3650 o         1 MOL     -0.706615
     68 H28         0.1020   -3.5230    1.6330 hn        1 MOL      0.292233
     69 H29         1.3240   -6.3050    1.9980 h1        1 MOL      0.085944
     70 H30        -0.1460   -4.6710    4.1160 hc        1 MOL      0.059765
     71 H31         1.5370   -5.0950    4.2310 hc        1 MOL      0.059765
     72 N7         -0.6810   -7.4560    1.2830 n         1 MOL     -0.316990
     73 C23        -1.5970   -8.1050    0.3280 c3        1 MOL      0.000881
     74 C24        -1.5850   -7.3600   -1.0190 c         1 MOL      0.410268
     75 O13        -2.6560   -7.3430   -1.7060 o         1 MOL     -0.526730
     76 H32         0.2240   -7.8730    1.4310 hn        1 MOL      0.242489
     77 H33        -2.6200   -8.0520    0.6920 h1        1 MOL      0.091288
     78 H34        -1.4570   -9.1760    0.2060 h1        1 MOL      0.091288
     79 N8         -0.4710   -6.7450   -1.4270 n         1 MOL     -0.319118
     80 C25        -0.3640   -6.0560   -2.6640 c3        1 MOL     -0.010952
     81 C26         0.1690   -4.6390   -2.4070 c         1 MOL      0.230613
     82 O14         1.0260   -4.3450   -1.5960 o         1 MOL     -0.431666
     83 C27         0.5000   -6.9160   -3.6810 c3        1 MOL      0.266770
     84 C28         1.9780   -6.9960   -3.2160 c3        1 MOL     -0.321987
     85 O15         0.0280   -8.2270   -3.7360 oh        1 MOL     -0.571316
     86 H35         0.3860   -6.9280   -0.9220 hn        1 MOL      0.281970
     87 H36        -1.3290   -6.0300   -3.1610 h1        1 MOL      0.057545
     88 H37         0.4460   -6.4250   -4.6550 h1        1 MOL      0.030764
     89 H38        -0.8180   -8.1620   -4.1730 ho        1 MOL      0.393900
     90 H39         2.5600   -7.2440   -4.1020 hc        1 MOL      0.097937
     91 H40         2.3940   -6.0490   -2.8930 hc        1 MOL      0.097937
     92 H41         2.2520   -7.5690   -2.3280 hc        1 MOL      0.097937
     93 N9         -0.4140   -3.6830   -3.2110 n         1 MOL      0.002421
     94 C29         0.0340   -2.3460   -3.1450 c3        1 MOL      0.032744
     95 C30        -0.8860   -1.5480   -2.1530 c         1 MOL      0.372600
     96 O16        -0.4650   -0.6850   -1.3610 o         1 MOL     -0.403015
     97 C31         0.0160   -1.7190   -4.6150 c3        1 MOL      0.017092
     98 C32         0.8640   -2.5450   -5.6540 c3        1 MOL      0.076472
     99 C33         0.2330   -0.1540   -4.5680 c3        1 MOL     -0.369248
    100 C34         2.3940   -2.7500   -5.3460 c3        1 MOL     -0.027059
    101 H42        -1.0480   -4.0340   -3.9050 hn        1 MOL      0.151549
    102 H43         1.0740   -2.2310   -2.8290 h1        1 MOL      0.055827
    103 H44        -0.9970   -1.7420   -5.0100 hc        1 MOL     -0.023861
    104 H45         0.8430   -2.0880   -6.6480 hc        1 MOL     -0.018980
    105 H46         0.4790   -3.5560   -5.6780 hc        1 MOL     -0.018980
    106 H47         0.1660    0.2590   -5.5680 hc        1 MOL      0.125688
    107 H48        -0.5830    0.3090   -4.0100 hc        1 MOL      0.125688
    108 H49         1.2500    0.0350   -4.2220 hc        1 MOL      0.125688
    109 H50         2.8560   -1.8520   -4.9220 hc        1 MOL      0.002723
    110 H51         2.5240   -3.6460   -4.7370 hc        1 MOL      0.002723
    111 H52         2.7680   -3.0730   -6.3130 hc        1 MOL      0.002723
    112 N10        -2.1730   -1.8070   -2.3500 n         1 MOL     -0.280620
    113 C35        -3.2350   -1.6280   -1.3710 c3        1 MOL     -0.036912
    114 C36        -4.6280   -1.3250   -2.0550 c         1 MOL      0.627176
    115 O17        -4.7850   -1.6320   -3.2340 o         1 MOL     -0.535742
    116 C37        -3.3810   -2.7830   -0.4170 c3        1 MOL      0.234186
    117 C38        -3.4870   -4.1750   -1.0500 c3        1 MOL     -0.430441
    118 O18        -2.3530   -2.8170    0.5610 oh        1 MOL     -0.548430
    119 H53        -2.4040   -2.3940   -3.1390 hn        1 MOL      0.208787
    120 H54        -2.8970   -0.8250   -0.7140 h1        1 MOL      0.012948
    121 H55        -4.3700   -2.5840    0.0040 h1        1 MOL     -0.004238
    122 H56        -2.7210   -3.3600    1.2570 ho        1 MOL      0.373062
    123 H57        -2.4970   -4.3990   -1.4470 hc        1 MOL      0.126875
    124 H58        -3.7290   -4.8740   -0.2440 hc        1 MOL      0.126875
    125 H59        -4.1160   -4.2250   -1.9360 hc        1 MOL      0.126875
    126 N11        -5.5800   -0.8300   -1.3310 n         1 MOL     -0.467416
    127 C39        -6.8320   -0.3630   -1.9040 c3        1 MOL      0.072594
    128 C40        -6.9630    1.1050   -2.0320 c         1 MOL      0.513944
    129 O19        -6.8500    1.7250   -3.0960 o         1 MOL     -0.531351
    130 C41        -7.9700   -1.0920   -1.0880 c3        1 MOL      0.273500
    131 C42        -9.3510   -0.5350   -1.2920 c3        1 MOL     -0.244592
    132 O20        -7.5790   -0.8800    0.3000 oh        1 MOL     -0.655953
    133 H60        -5.4510   -0.8650   -0.3360 hn        1 MOL      0.284073
    134 H61        -7.0640   -0.8630   -2.8550 h1        1 MOL      0.064128
    135 H62        -7.9550   -2.1400   -1.3650 h1        1 MOL      0.046921
    136 H63        -8.3780   -1.0230    0.8140 ho        1 MOL      0.420897
    137 H64        -9.4590    0.3710   -0.6980 hc        1 MOL      0.066789
    138 H65        -9.5400   -0.3280   -2.3460 hc        1 MOL      0.066789
    139 H66       -10.0380   -1.2940   -0.9210 hc        1 MOL      0.066789
    140 N12        -6.9380    1.7410   -0.8660 n         1 MOL     -0.413902
    141 C43        -6.5920    3.1410   -0.6610 c3        1 MOL      0.201211
    142 C44        -5.6180    3.3270    0.5030 c         1 MOL      0.350294
    143 O21        -5.7790    2.5730    1.4970 o         1 MOL     -0.513880
    144 C45        -7.9050    3.9280   -0.5310 c3        1 MOL     -0.198486
    145 C46        -7.6690    5.4320   -0.2940 c3        1 MOL      0.119563
    146 C47        -8.9400    6.2040   -0.6740 c3        1 MOL      0.061544
    147 C48        -8.7610    7.7250   -0.7200 c3        1 MOL     -0.026613
    148 N13        -9.9870    8.4310   -1.1490 n4        1 MOL     -0.017334
    149 H67        -7.1400    1.2150   -0.0330 hn        1 MOL      0.262268
    150 H68        -6.0790    3.5610   -1.5290 h1        1 MOL      0.047699
    151 H69        -8.4040    3.5180    0.3390 hc        1 MOL      0.059857
    152 H70        -8.5020    3.7490   -1.4240 hc        1 MOL      0.059857
    153 H71        -6.8990    5.8140   -0.9660 hc        1 MOL     -0.018959
    154 H72        -7.3670    5.6980    0.7230 hc        1 MOL     -0.018959
    155 H73        -9.7450    5.9010   -0.0010 hc        1 MOL     -0.008866
    156 H74        -9.3720    5.9030   -1.6350 hc        1 MOL     -0.008866
    157 H75        -7.9500    7.9030   -1.4290 hx        1 MOL      0.074917
    158 H76        -8.5200    8.0480    0.2920 hx        1 MOL      0.074917
    159 H77       -10.6360    8.4720   -0.3800 hn        1 MOL      0.171023
    160 H78        -9.7780    9.4110   -1.2960 hn        1 MOL      0.171023
    161 H79       -10.5420    8.0150   -1.8830 hn        1 MOL      0.171023
    162 N14        -4.6210    4.2270    0.3720 n         1 MOL     -0.225834
    163 C49        -3.4270    4.3330    1.1680 c3        1 MOL     -0.032058
    164 C50        -2.5960    3.0170    1.2070 c         1 MOL      0.703596
    165 O22        -2.3350    2.4090    2.2900 o         1 MOL     -0.814032
    166 C51        -2.5820    5.5740    0.7350 c3        1 MOL     -0.051563
    167 C52        -3.4660    6.8070    1.0010 c3        1 MOL     -0.327455
    168 C53        -2.8180    8.0690    0.3430 c         1 MOL      0.603101
    169 O23        -2.0040    8.6930    1.0890 o         1 MOL     -0.646618
    170 O24        -2.8620    8.3430   -0.8980 o         1 MOL     -0.646618
    171 H80        -4.5970    4.7700   -0.4750 hn        1 MOL      0.227867
    172 H81        -3.7130    4.4500    2.2170 h1        1 MOL      0.073669
    173 H82        -2.3500    5.5160   -0.3250 hc        1 MOL      0.127566
    174 H83        -1.6700    5.6770    1.3240 hc        1 MOL      0.127566
    175 H84        -3.5330    6.9180    2.0840 hc        1 MOL      0.061473
    176 H85        -4.5010    6.7490    0.6620 hc        1 MOL      0.061473
    177 N15        -2.1490    2.5190    0.0440 n         1 MOL     -0.495045
    178 C54        -2.2860    3.0730   -1.3850 c3        1 MOL     -0.104837
    179 H86        -1.4390    2.7410   -1.9850 h1        1 MOL      0.076953
    180 H87        -3.2110    2.7070   -1.8310 h1        1 MOL      0.076953
    181 H88        -2.3030    4.1620   -1.3540 h1        1 MOL      0.076953
    182 H89        -1.4790    1.7750    0.1680 hn        1 MOL      0.318618
    183 Ca1        -0.7650    0.8540    3.7220 Ca        1 MOL      1.761865
    184 O25         0.2130   -1.8240    4.0230 oh        1 MOL     -0.812265
    185 O26         0.9460    0.6000    5.8910 oh        1 MOL     -0.812265
    186 H90        -0.4140   -2.1820    4.6510 ho        1 MOL      0.413662
    187 H91         1.3060   -0.2820    5.7610 ho        1 MOL      0.413662
    188 H92         1.0750   -2.0380    4.3980 ho        1 MOL      0.413662
    189 H93         1.5780    1.0320    6.4510 ho        1 MOL      0.413662
    190 O27        -2.3820    0.6470    5.7190 oh        1 MOL     -0.812265
    191 H94        -3.0780    0.0370    5.9720 ho        1 MOL      0.413662
    192 H95        -2.5920    1.4570    6.1910 ho        1 MOL      0.413662
    193 O28        -2.9230   -0.8550    3.2680 oh        1 MOL     -0.812265
    194 H96        -3.4370   -0.5990    2.4960 ho        1 MOL      0.413662
    195 H97        -3.5460   -1.3470    3.8070 ho        1 MOL      0.413662
    196 O29        -1.0430   -0.5070    1.2180 oh        1 MOL     -0.812265
    197 H98        -1.4880   -1.3470    1.3240 ho        1 MOL      0.413662
    198 H99        -0.8430   -0.4620    0.2810 ho        1 MOL      0.413662
    199 O30        -0.3750    3.3060    4.6230 oh        1 MOL     -0.812265
    200 H100       -1.0880    3.6870    5.1320 ho        1 MOL      0.413662
    201 H101       -0.1760    3.9590    3.9570 ho        1 MOL      0.413662
@<TRIPOS>BOND
     1    1    2 1   
     2    1    4 1   
     3    1    5 1   
     4    1    6 1   
     5    2    3 2   
     6    2    7 1   
     7    7    8 1   
     8    7   15 1   
     9    8    9 1   
    10    8   11 1   
    11    8   16 1   
    12    9   10 2   
    13    9   19 1   
    14   11   12 1   
    15   11   17 1   
    16   11   18 1   
    17   12   13 1   
    18   12   14 1   
    19   19   20 1   
    20   19   28 1   
    21   20   21 1   
    22   20   23 1   
    23   20   29 1   
    24   21   22 2   
    25   21   41 1   
    26   23   24 1   
    27   23   30 1   
    28   23   31 1   
    29   24   25 1   
    30   24   32 1   
    31   24   33 1   
    32   25   26 1   
    33   25   34 1   
    34   25   35 1   
    35   26   27 1   
    36   26   36 1   
    37   26   37 1   
    38   27   38 1   
    39   27   39 1   
    40   27   40 1   
    41   41   42 1   
    42   41   49 1   
    43   42   43 1   
    44   42   45 1   
    45   42   50 1   
    46   43   44 2   
    47   43   53 1   
    48   45   46 1   
    49   45   51 1   
    50   45   52 1   
    51   46   47 1   
    52   46   48 1   
    53   53   54 1   
    54   53   57 1   
    55   54   55 1   
    56   54   58 1   
    57   54   59 1   
    58   55   56 2   
    59   55   60 1   
    60   60   61 1   
    61   60   68 1   
    62   61   62 1   
    63   61   64 1   
    64   61   69 1   
    65   62   63 2   
    66   62   72 1   
    67   64   65 1   
    68   64   70 1   
    69   64   71 1   
    70   65   66 1   
    71   65   67 1   
    72   72   73 1   
    73   72   76 1   
    74   73   74 1   
    75   73   77 1   
    76   73   78 1   
    77   74   75 2   
    78   74   79 1   
    79   79   80 1   
    80   79   86 1   
    81   80   81 1   
    82   80   83 1   
    83   80   87 1   
    84   81   82 2   
    85   81   93 1   
    86   83   84 1   
    87   83   85 1   
    88   83   88 1   
    89   84   90 1   
    90   84   91 1   
    91   84   92 1   
    92   85   89 1   
    93   93   94 1   
    94   93  101 1   
    95   94   95 1   
    96   94   97 1   
    97   94  102 1   
    98   95   96 2   
    99   95  112 1   
   100   97   98 1   
   101   97   99 1   
   102   97  103 1   
   103   98  100 1   
   104   98  104 1   
   105   98  105 1   
   106   99  106 1   
   107   99  107 1   
   108   99  108 1   
   109  100  109 1   
   110  100  110 1   
   111  100  111 1   
   112  112  113 1   
   113  112  119 1   
   114  113  114 1   
   115  113  116 1   
   116  113  120 1   
   117  114  115 2   
   118  114  126 1   
   119  116  117 1   
   120  116  118 1   
   121  116  121 1   
   122  117  123 1   
   123  117  124 1   
   124  117  125 1   
   125  118  122 1   
   126  126  127 1   
   127  126  133 1   
   128  127  128 1   
   129  127  130 1   
   130  127  134 1   
   131  128  129 2   
   132  128  140 1   
   133  130  131 1   
   134  130  132 1   
   135  130  135 1   
   136  131  137 1   
   137  131  138 1   
   138  131  139 1   
   139  132  136 1   
   140  140  141 1   
   141  140  149 1   
   142  141  142 1   
   143  141  144 1   
   144  141  150 1   
   145  142  143 2   
   146  142  162 1   
   147  144  145 1   
   148  144  151 1   
   149  144  152 1   
   150  145  146 1   
   151  145  153 1   
   152  145  154 1   
   153  146  147 1   
   154  146  155 1   
   155  146  156 1   
   156  147  148 1   
   157  147  157 1   
   158  147  158 1   
   159  148  159 1   
   160  148  160 1   
   161  148  161 1   
   162  162  163 1   
   163  162  171 1   
   164  163  164 1   
   165  163  166 1   
   166  163  172 1   
   167  164  165 2   
   168  164  177 1   
   169  166  167 1   
   170  166  173 1   
   171  166  174 1   
   172  167  168 1   
   173  167  175 1   
   174  167  176 1   
   175  168  169 1   
   176  168  170 1   
   177  177  178 1   
   178  177  182 1   
   179  178  179 1   
   180  178  180 1   
   181  178  181 1   
   182  184  186 1   
   183  184  188 1   
   184  185  187 1   
   185  185  189 1   
   186  190  191 1   
   187  190  192 1   
   188  193  194 1   
   189  193  195 1   
   190  196  197 1   
   191  196  198 1   
   192  199  200 1   
   193  199  201 1   
@<TRIPOS>SUBSTRUCTURE
     1 MOL         1 TEMP              0 ****  ****    0 ROOT
