@<TRIPOS>MOLECULE
MOL
  181   177     1     0     0
SMALL
resp


@<TRIPOS>ATOM
      1 C1          2.6380   -3.8040    3.5440 c3        1 MOL     -0.139266
      2 C2          3.9510   -2.9490    3.4170 c         1 MOL      0.633954
      3 O1          3.9470   -1.7240    3.7090 o         1 MOL     -0.613607
      4 H1          2.6070   -4.2780    4.5250 hc        1 MOL      0.035057
      5 H2          1.7690   -3.1570    3.4260 hc        1 MOL      0.035057
      6 H3          2.6270   -4.5720    2.7710 hc        1 MOL      0.035057
      7 N1          5.0720   -3.6690    3.3280 n         1 MOL     -0.489620
      8 C3          6.4200   -3.0800    3.2850 c3        1 MOL      0.179603
      9 C4          6.7030   -2.5610    1.8520 c         1 MOL      0.687495
     10 O2          6.3620   -3.1930    0.8300 o         1 MOL     -0.511942
     11 C5          7.5090   -4.1270    3.6970 c3        1 MOL     -0.277216
     12 C6          7.5870   -5.4500    2.8890 c         1 MOL      0.680454
     13 O3          6.5930   -6.1790    2.5460 o         1 MOL     -0.693048
     14 O4          8.7340   -5.7920    2.5600 o         1 MOL     -0.693048
     15 H4          4.9870   -4.6780    3.2780 hn        1 MOL      0.246968
     16 H5          6.5400   -2.2680    4.0030 h1        1 MOL      0.010637
     17 H6          7.3030   -4.2580    4.7600 hc        1 MOL      0.037816
     18 H7          8.4720   -3.6290    3.6050 hc        1 MOL      0.037816
     19 N2          7.2310   -1.3170    1.7630 n         1 MOL     -0.791202
     20 C7          7.6820   -0.7020    0.5550 c3        1 MOL      0.508922
     21 C8          6.4910   -0.2320   -0.2830 c         1 MOL      0.354087
     22 O5          5.3690   -0.0460    0.1790 o         1 MOL     -0.444510
     23 C9          8.6540    0.4570    0.9370 c3        1 MOL     -0.384931
     24 H8          7.5390   -0.9430    2.6450 hn        1 MOL      0.346129
     25 H9          8.2450   -1.3920   -0.0620 h1        1 MOL      0.002493
     26 H10         9.0450    0.9290    0.0320 hc        1 MOL      0.088108
     27 H11         8.2840    1.2370    1.6200 hc        1 MOL      0.088108
     28 H12         9.4820    0.0290    1.5110 hc        1 MOL      0.088108
     29 N3          6.7050   -0.0810   -1.6080 n         1 MOL     -0.632846
     30 C10         5.5230   -0.0100   -2.5000 c3        1 MOL      0.200732
     31 C11         5.5990    1.3000   -3.2230 c         1 MOL      0.527680
     32 O6          5.4820    1.3250   -4.4610 o         1 MOL     -0.478901
     33 C12         5.5620   -1.2450   -3.4920 c3        1 MOL     -0.035452
     34 C13         4.2040   -1.6700   -4.0480 c         1 MOL      0.602413
     35 O7          3.3270   -2.0090   -3.2230 o         1 MOL     -0.670713
     36 O8          4.0790   -1.7320   -5.2770 o         1 MOL     -0.670713
     37 H13         7.6500   -0.2170   -1.9620 hn        1 MOL      0.313219
     38 H14         4.5610   -0.0180   -1.9760 h1        1 MOL      0.020732
     39 H15         5.9670   -2.0830   -2.9240 hc        1 MOL     -0.005307
     40 H16         6.2180   -0.9520   -4.3170 hc        1 MOL     -0.005307
     41 N4          5.8730    2.3760   -2.5240 n         1 MOL     -0.425406
     42 C14         5.8540    3.7530   -3.0430 c3        1 MOL     -0.072305
     43 C15         4.4680    4.4190   -3.3100 c         1 MOL      0.459989
     44 O9          4.3940    5.2300   -4.2680 o         1 MOL     -0.552141
     45 H17         6.0760    2.2480   -1.5420 hn        1 MOL      0.292105
     46 H18         6.2630    3.6160   -4.0390 h1        1 MOL      0.081723
     47 H19         6.5330    4.3710   -2.4530 h1        1 MOL      0.081723
     48 N5          3.3810    4.1100   -2.6300 n         1 MOL     -0.253014
     49 C16         2.1030    4.6070   -2.8200 c3        1 MOL     -0.037051
     50 C17         1.4800    5.3830   -1.6100 c         1 MOL      0.571732
     51 O10         1.2820    4.7630   -0.5250 o         1 MOL     -0.497415
     52 C18         1.1240    3.4020   -3.1830 c3        1 MOL     -0.053406
     53 C19         1.5720    2.4540   -4.2350 c         1 MOL      0.516225
     54 N6          1.7680    2.9650   -5.4210 n         1 MOL     -0.725689
     55 O11         1.8490    1.2680   -3.9870 o         1 MOL     -0.484093
     56 H20         3.5660    3.6610   -1.7390 hn        1 MOL      0.225796
     57 H21         2.0510    5.2450   -3.7080 h1        1 MOL      0.044135
     58 H22         0.1540    3.7560   -3.5430 hc        1 MOL      0.041140
     59 H23         0.7920    2.8690   -2.2850 hc        1 MOL      0.041140
     60 H24         1.6400    3.9480   -5.6330 hn        1 MOL      0.372869
     61 H25         2.1500    2.3150   -6.0960 hn        1 MOL      0.372869
     62 N7          1.0810    6.6620   -1.7660 n         1 MOL     -0.556800
     63 C20         0.7520    7.5260   -0.5800 c3        1 MOL      0.116171
     64 C21        -0.5200    7.2290    0.0760 c         1 MOL      0.474832
     65 O12        -1.5040    6.8670   -0.5880 o         1 MOL     -0.468020
     66 H26         1.4190    7.1410   -2.5800 hn        1 MOL      0.324311
     67 H27         0.8290    8.6020   -0.6860 h1        1 MOL      0.033450
     68 H28         1.5310    7.4900    0.1720 h1        1 MOL      0.033450
     69 N8         -0.5380    7.5870    1.4080 n         1 MOL     -0.370491
     70 C22        -1.7820    7.6770    2.1970 c3        1 MOL     -0.385476
     71 C23        -2.4410    6.3770    2.5920 c         1 MOL      0.590062
     72 O13        -3.4740    6.5060    3.1480 o         1 MOL     -0.577461
     73 C24        -1.5270    8.5020    3.5130 c3        1 MOL      0.491531
     74 C25        -0.7200    7.9680    4.6360 c3        1 MOL     -0.190892
     75 O14        -0.9820    9.7290    3.3080 oh        1 MOL     -0.604883
     76 H29         0.2960    8.0200    1.7720 hn        1 MOL      0.261646
     77 H30        -2.5210    8.2900    1.6810 h1        1 MOL      0.188748
     78 H31        -2.4550    8.7340    4.0460 h1        1 MOL      0.026319
     79 H32        -0.0510    9.5210    3.2470 ho        1 MOL      0.342820
     80 H33        -1.2170    7.1670    5.1820 hc        1 MOL      0.035468
     81 H34         0.1190    7.4090    4.2300 hc        1 MOL      0.035468
     82 H35        -0.4380    8.6800    5.4180 hc        1 MOL      0.035468
     83 N9         -1.8850    5.1860    2.4320 n         1 MOL     -0.173201
     84 C26        -2.5680    3.8600    2.6170 c3        1 MOL     -0.133037
     85 C27        -2.1650    2.8710    1.4740 c         1 MOL      0.406467
     86 O15        -1.3140    3.1820    0.6920 o         1 MOL     -0.393564
     87 C28        -2.2080    3.2780    4.0590 c3        1 MOL      0.097806
     88 C29        -0.7270    2.9980    4.2000 c3        1 MOL      0.016229
     89 C30        -2.5580    4.1880    5.2510 c3        1 MOL     -0.465772
     90 C31        -0.4560    1.8480    5.0810 c3        1 MOL     -0.093282
     91 H36        -0.9150    5.0960    2.1650 hn        1 MOL      0.179738
     92 H37        -3.6430    4.0280    2.6070 h1        1 MOL      0.121412
     93 H38        -2.7230    2.3140    4.1750 hc        1 MOL      0.043910
     94 H39        -0.1370    3.8930    4.4050 hc        1 MOL      0.023557
     95 H40        -0.3990    2.6510    3.2190 hc        1 MOL      0.023557
     96 H41        -1.9460    5.0900    5.2270 hc        1 MOL      0.115545
     97 H42        -3.5380    4.6210    5.0410 hc        1 MOL      0.115545
     98 H43        -2.5070    3.6520    6.1970 hc        1 MOL      0.115545
     99 H44        -1.1190    1.0580    4.7470 hc        1 MOL      0.029159
    100 H45         0.5980    1.5970    5.0030 hc        1 MOL      0.029159
    101 H46        -0.5570    2.0250    6.1540 hc        1 MOL      0.029159
    102 N10        -2.7310    1.6580    1.4090 n         1 MOL     -0.507074
    103 C32        -2.3350    0.5230    0.6030 c3        1 MOL      0.348380
    104 C33        -3.5690   -0.2500    0.0150 c         1 MOL      0.463786
    105 O16        -3.4750   -1.4610   -0.2300 o         1 MOL     -0.493591
    106 C34        -1.3300   -0.4340    1.3430 c3        1 MOL     -0.423545
    107 C35        -0.4350   -1.2320    0.3620 c         1 MOL      0.829973
    108 O17         0.6320   -1.6920    0.7710 o         1 MOL     -0.739538
    109 O18        -0.6640   -1.1540   -0.8320 o         1 MOL     -0.739538
    110 H47        -3.6570    1.5670    1.7960 hn        1 MOL      0.233125
    111 H48        -1.9380    0.9310   -0.3290 h1        1 MOL      0.007686
    112 H49        -1.9050   -1.1440    1.9400 hc        1 MOL      0.116817
    113 H50        -0.7390    0.2500    1.9500 hc        1 MOL      0.116817
    114 N11        -4.6910    0.3830   -0.1180 n         1 MOL     -0.497058
    115 C36        -5.8700   -0.2150   -0.8350 c3        1 MOL      0.243904
    116 C37        -6.1810   -1.6970   -0.3510 c         1 MOL      0.216508
    117 O19        -6.2930   -1.9000    0.8540 o         1 MOL     -0.474941
    118 C38        -7.1580    0.6880   -0.8130 c3        1 MOL     -0.096210
    119 C39        -8.2360    0.2540   -1.8110 ca        1 MOL     -0.070110
    120 C40        -8.0980    0.2830   -3.2230 ca        1 MOL     -0.055839
    121 C41        -9.4380   -0.3150   -1.3140 ca        1 MOL     -0.055839
    122 C42        -9.1950   -0.1550   -4.0290 ca        1 MOL     -0.215395
    123 C43       -10.5000   -0.8480   -2.0240 ca        1 MOL     -0.215395
    124 C44       -10.3310   -0.8350   -3.4210 ca        1 MOL      0.007758
    125 H51        -4.7350    1.3770    0.0850 hn        1 MOL      0.273750
    126 H52        -5.6300   -0.2220   -1.8900 h1        1 MOL      0.005078
    127 H53        -6.8800    1.7070   -1.0930 hc        1 MOL      0.064136
    128 H54        -7.5540    0.7780    0.1930 hc        1 MOL      0.064136
    129 H55        -7.2640    0.7610   -3.7090 ha        1 MOL      0.107703
    130 H56        -9.5190   -0.3460   -0.2370 ha        1 MOL      0.107703
    131 H57        -9.1910   -0.0940   -5.1040 ha        1 MOL      0.138569
    132 H58       -11.3250   -1.2470   -1.4430 ha        1 MOL      0.138569
    133 H59       -11.1100   -1.1220   -4.1110 ha        1 MOL      0.069471
    134 N12        -6.2430   -2.6940   -1.2270 n         1 MOL     -0.052328
    135 C45        -6.6310   -4.0890   -0.9330 c3        1 MOL      0.184964
    136 C46        -5.7950   -4.7800    0.2070 c         1 MOL      0.281772
    137 O20        -6.3900   -5.5320    0.9400 o         1 MOL     -0.543149
    138 C47        -6.6130   -4.8860   -2.1970 c3        1 MOL     -0.078896
    139 C48        -6.7510   -3.7730   -3.2850 c3        1 MOL     -0.162286
    140 C49        -6.0110   -2.5770   -2.6750 c3        1 MOL      0.041911
    141 H60        -7.5920   -4.0220   -0.4220 h1        1 MOL      0.025250
    142 H61        -5.6790   -5.4320   -2.3640 hc        1 MOL      0.056424
    143 H62        -7.4270   -5.6130   -2.1420 hc        1 MOL      0.056424
    144 H63        -6.2870   -4.0860   -4.2130 hc        1 MOL      0.043920
    145 H64        -7.7900   -3.4470   -3.3760 hc        1 MOL      0.043920
    146 H65        -4.9780   -2.6780   -2.9880 h1        1 MOL      0.044658
    147 H66        -6.4130   -1.6660   -3.1190 h1        1 MOL      0.044658
    148 N13        -4.5420   -4.4430    0.4620 n         1 MOL     -0.163798
    149 C50        -3.6380   -5.1830    1.4380 c3        1 MOL     -0.114999
    150 C51        -3.8200   -4.6150    2.8750 c         1 MOL      0.494836
    151 O21        -3.0640   -5.1090    3.7330 o         1 MOL     -0.554302
    152 C52        -2.1790   -5.1730    1.0340 c3        1 MOL      0.034495
    153 C53        -1.8500   -5.9710   -0.2320 c3        1 MOL     -0.086324
    154 C54        -0.3330   -5.6940   -0.5090 c         1 MOL      0.617948
    155 O22        -0.0070   -4.5630   -0.9520 o         1 MOL     -0.681574
    156 O23         0.4970   -6.5940   -0.2600 o         1 MOL     -0.681574
    157 H67        -4.1440   -3.8550   -0.2550 hn        1 MOL      0.215987
    158 H68        -4.0550   -6.1860    1.4780 h1        1 MOL      0.105156
    159 H69        -1.5140   -5.4630    1.8530 hc        1 MOL      0.040711
    160 H70        -2.0230   -4.1260    0.7650 hc        1 MOL      0.040711
    161 H71        -2.4880   -5.7440   -1.0870 hc        1 MOL      0.001495
    162 H72        -1.9630   -7.0380   -0.0660 hc        1 MOL      0.001495
    163 N14        -4.6470   -3.6250    3.0180 n         1 MOL     -0.276462
    164 C55        -4.8230   -2.8720    4.3340 c3        1 MOL     -0.135587
    165 H73        -5.8810   -2.6620    4.4930 h1        1 MOL      0.074164
    166 H74        -4.4460   -3.4820    5.1550 h1        1 MOL      0.074164
    167 H75        -4.2700   -1.9340    4.2930 h1        1 MOL      0.074164
    168 H76        -4.9860   -3.1010    2.2280 hn        1 MOL      0.269379
    169 Ca1         1.7350   -2.5980   -1.2740 Ca        1 MOL      1.750272
    170 O24         2.7280   -4.9100   -0.4660 oh        1 MOL     -0.932229
    171 H77         3.4640   -5.3350   -0.0240 ho        1 MOL      0.440490
    172 H78         1.9640   -5.4520   -0.2420 ho        1 MOL      0.440490
    173 O25         3.8950   -2.2580    0.2120 oh        1 MOL     -0.932229
    174 H79         4.7120   -2.6870    0.4940 ho        1 MOL      0.440490
    175 H80         4.1620   -1.3810   -0.0510 ho        1 MOL      0.440490
    176 O26         2.0340    0.0780   -1.4410 oh        1 MOL     -0.932229
    177 H81         1.5980    0.6460   -0.8060 ho        1 MOL      0.440490
    178 H82         1.9390    0.5350   -2.2720 ho        1 MOL      0.440490
    179 O27         0.4360   -1.9660   -3.4460 oh        1 MOL     -0.932229
    180 H83        -0.1540   -1.2200   -3.3730 ho        1 MOL      0.440490
    181 H84         0.7480   -1.9370   -4.3500 ho        1 MOL      0.440490
@<TRIPOS>BOND
     1    1    2 1   
     2    1    4 1   
     3    1    5 1   
     4    1    6 1   
     5    2    3 2   
     6    2    7 1   
     7    7    8 1   
     8    7   15 1   
     9    8    9 1   
    10    8   11 1   
    11    8   16 1   
    12    9   10 2   
    13    9   19 1   
    14   11   12 1   
    15   11   17 1   
    16   11   18 1   
    17   12   13 1   
    18   12   14 1   
    19   19   20 1   
    20   19   24 1   
    21   20   21 1   
    22   20   23 1   
    23   20   25 1   
    24   21   22 2   
    25   21   29 1   
    26   23   26 1   
    27   23   27 1   
    28   23   28 1   
    29   29   30 1   
    30   29   37 1   
    31   30   31 1   
    32   30   33 1   
    33   30   38 1   
    34   31   32 2   
    35   31   41 1   
    36   33   34 1   
    37   33   39 1   
    38   33   40 1   
    39   34   35 1   
    40   34   36 1   
    41   41   42 1   
    42   41   45 1   
    43   42   43 1   
    44   42   46 1   
    45   42   47 1   
    46   43   44 2   
    47   43   48 1   
    48   48   49 1   
    49   48   56 1   
    50   49   50 1   
    51   49   52 1   
    52   49   57 1   
    53   50   51 2   
    54   50   62 1   
    55   52   53 1   
    56   52   58 1   
    57   52   59 1   
    58   53   54 1   
    59   53   55 2   
    60   54   60 1   
    61   54   61 1   
    62   62   63 1   
    63   62   66 1   
    64   63   64 1   
    65   63   67 1   
    66   63   68 1   
    67   64   65 2   
    68   64   69 1   
    69   69   70 1   
    70   69   76 1   
    71   70   71 1   
    72   70   73 1   
    73   70   77 1   
    74   71   72 2   
    75   71   83 1   
    76   73   74 1   
    77   73   75 1   
    78   73   78 1   
    79   74   80 1   
    80   74   81 1   
    81   74   82 1   
    82   75   79 1   
    83   83   84 1   
    84   83   91 1   
    85   84   85 1   
    86   84   87 1   
    87   84   92 1   
    88   85   86 2   
    89   85  102 1   
    90   87   88 1   
    91   87   89 1   
    92   87   93 1   
    93   88   90 1   
    94   88   94 1   
    95   88   95 1   
    96   89   96 1   
    97   89   97 1   
    98   89   98 1   
    99   90   99 1   
   100   90  100 1   
   101   90  101 1   
   102  102  103 1   
   103  102  110 1   
   104  103  104 1   
   105  103  106 1   
   106  103  111 1   
   107  104  105 2   
   108  104  114 1   
   109  106  107 1   
   110  106  112 1   
   111  106  113 1   
   112  107  108 1   
   113  107  109 1   
   114  114  115 1   
   115  114  125 1   
   116  115  116 1   
   117  115  118 1   
   118  115  126 1   
   119  116  117 2   
   120  116  134 1   
   121  118  119 1   
   122  118  127 1   
   123  118  128 1   
   124  119  120 ar  
   125  119  121 ar  
   126  120  122 ar  
   127  120  129 1   
   128  121  123 ar  
   129  121  130 1   
   130  122  124 ar  
   131  122  131 1   
   132  123  124 ar  
   133  123  132 1   
   134  124  133 1   
   135  134  135 1   
   136  134  140 1   
   137  135  136 1   
   138  135  138 1   
   139  135  141 1   
   140  136  137 2   
   141  136  148 1   
   142  138  139 1   
   143  138  142 1   
   144  138  143 1   
   145  139  140 1   
   146  139  144 1   
   147  139  145 1   
   148  140  146 1   
   149  140  147 1   
   150  148  149 1   
   151  148  157 1   
   152  149  150 1   
   153  149  152 1   
   154  149  158 1   
   155  150  151 2   
   156  150  163 1   
   157  152  153 1   
   158  152  159 1   
   159  152  160 1   
   160  153  154 1   
   161  153  161 1   
   162  153  162 1   
   163  154  155 1   
   164  154  156 1   
   165  163  164 1   
   166  163  168 1   
   167  164  165 1   
   168  164  166 1   
   169  164  167 1   
   170  170  171 1   
   171  170  172 1   
   172  173  174 1   
   173  173  175 1   
   174  176  177 1   
   175  176  178 1   
   176  179  180 1   
   177  179  181 1   
@<TRIPOS>SUBSTRUCTURE
     1 MOL         1 TEMP              0 ****  ****    0 ROOT
