@<TRIPOS>MOLECULE
MOL
  181   177     1     0     0
SMALL
resp


@<TRIPOS>ATOM
      1 C1         -2.5980    1.1950    4.3580 c3        1 MOL     -0.190320
      2 C2         -3.0650   -0.0840    3.5890 c         1 MOL      0.493419
      3 O1         -2.7230   -0.2600    2.4210 o         1 MOL     -0.453673
      4 H1         -2.7210    1.0390    5.4300 hc        1 MOL      0.039945
      5 H2         -1.5480    1.3890    4.1370 hc        1 MOL      0.039945
      6 H3         -3.1990    2.0480    4.0440 hc        1 MOL      0.039945
      7 N1         -4.0510   -0.8420    4.1850 n         1 MOL     -0.508191
      8 C3         -4.6880   -2.0390    3.6080 c3        1 MOL      0.287042
      9 C4         -5.3530   -1.7520    2.2650 c         1 MOL      0.407882
     10 O2         -5.4630   -2.5690    1.3160 o         1 MOL     -0.484710
     11 C5         -5.5660   -2.5860    4.7030 c3        1 MOL     -0.236603
     12 C6         -5.9550   -4.0890    4.4910 c         1 MOL      0.711425
     13 O3         -5.2040   -4.8300    3.8170 o         1 MOL     -0.711519
     14 O4         -7.0370   -4.4830    4.9170 o         1 MOL     -0.711519
     15 H4         -4.1850   -0.6010    5.1520 hn        1 MOL      0.274967
     16 H5         -3.9460   -2.8050    3.3610 h1        1 MOL      0.012858
     17 H6         -6.5150   -2.0690    4.8070 hc        1 MOL      0.007501
     18 H7         -5.1060   -2.4060    5.6720 hc        1 MOL      0.007501
     19 N2         -5.8540   -0.5310    2.1730 n         1 MOL     -0.223364
     20 C7         -6.3770    0.1420    0.9700 c3        1 MOL      0.151094
     21 C8         -5.4820    0.0600   -0.2430 c         1 MOL      0.483200
     22 O5         -4.4130    0.6630   -0.2250 o         1 MOL     -0.578608
     23 C9         -7.8530   -0.3760    0.7830 c3        1 MOL     -0.254151
     24 H8         -5.8960   -0.0340    3.0580 hn        1 MOL      0.177395
     25 H9         -6.4410    1.2070    1.1910 h1        1 MOL      0.010029
     26 H10        -8.2500    0.0730   -0.1330 hc        1 MOL      0.051632
     27 H11        -7.6920   -1.4040    0.4780 hc        1 MOL      0.051632
     28 H12        -8.5230   -0.1110    1.5940 hc        1 MOL      0.051632
     29 N3         -5.8960   -0.6760   -1.3010 n         1 MOL     -0.432369
     30 C10        -5.0300   -0.9630   -2.4640 c3        1 MOL      0.042127
     31 C11        -4.8830   -2.4820   -2.7180 c         1 MOL      0.559971
     32 O6         -4.7470   -2.9760   -3.8180 o         1 MOL     -0.537930
     33 C12        -5.4950   -0.1560   -3.6520 c3        1 MOL     -0.415765
     34 C13        -5.5090    1.3870   -3.4850 c         1 MOL      0.749955
     35 O7         -4.6810    1.9570   -2.7810 o         1 MOL     -0.712341
     36 O8         -6.1360    2.0360   -4.3310 o         1 MOL     -0.712341
     37 H13        -6.8160   -1.0850   -1.2630 hn        1 MOL      0.295684
     38 H14        -4.0360   -0.6020   -2.2010 h1        1 MOL      0.085231
     39 H15        -6.4200   -0.5740   -4.0520 hc        1 MOL      0.116715
     40 H16        -4.7460   -0.3270   -4.4240 hc        1 MOL      0.116715
     41 N4         -5.0550   -3.2170   -1.6370 n         1 MOL     -0.280366
     42 C14        -4.7760   -4.6360   -1.5590 c3        1 MOL     -0.295655
     43 C15        -3.3120   -4.9510   -1.8870 c         1 MOL      0.665600
     44 O9         -3.1090   -5.9960   -2.4600 o         1 MOL     -0.600709
     45 H17        -5.3320   -2.7810   -0.7700 hn        1 MOL      0.235133
     46 H18        -5.4230   -5.0500   -2.3330 h1        1 MOL      0.128896
     47 H19        -4.9690   -4.9870   -0.5440 h1        1 MOL      0.128896
     48 N5         -2.3860   -4.0830   -1.6380 n         1 MOL     -0.220968
     49 C16        -1.0570   -4.2230   -2.0610 c3        1 MOL     -0.125181
     50 C17        -0.1580   -5.1300   -1.1500 c         1 MOL      0.351253
     51 O10        -0.0740   -4.9670    0.0950 o         1 MOL     -0.498858
     52 C18        -0.3980   -2.9000   -2.3530 c3        1 MOL     -0.040709
     53 C19        -0.9350   -2.1070   -3.5440 c         1 MOL      0.683998
     54 N6         -1.4260   -0.8980   -3.2880 n         1 MOL     -0.835089
     55 O11        -0.9460   -2.5520   -4.6930 o         1 MOL     -0.587722
     56 H20        -2.6500   -3.3090   -1.0510 hn        1 MOL      0.222395
     57 H21        -1.0860   -4.7340   -3.0290 h1        1 MOL      0.087188
     58 H22         0.6330   -3.1170   -2.6450 hc        1 MOL      0.050323
     59 H23        -0.4320   -2.1810   -1.5340 hc        1 MOL      0.050323
     60 H24        -1.3350   -0.3670   -2.4310 hn        1 MOL      0.350883
     61 H25        -1.7690   -0.3770   -4.0790 hn        1 MOL      0.350883
     62 N7          0.5640   -6.1030   -1.7220 n         1 MOL     -0.126897
     63 C20         1.5090   -6.9420   -1.0070 c3        1 MOL     -0.364221
     64 C21         2.9660   -6.3650   -1.1440 c         1 MOL      0.670287
     65 O12         3.2400   -5.8040   -2.1730 o         1 MOL     -0.534131
     66 H26         0.4130   -6.2180   -2.7150 hn        1 MOL      0.229138
     67 H27         1.3870   -7.9590   -1.3830 h1        1 MOL      0.141194
     68 H28         1.2490   -6.8190    0.0370 h1        1 MOL      0.141194
     69 N8          3.8520   -6.5470   -0.1890 n         1 MOL     -0.469522
     70 C22         5.3220   -6.1200   -0.2570 c3        1 MOL     -0.359220
     71 C23         5.5170   -4.6610    0.1530 c         1 MOL      0.557685
     72 O13         6.6620   -4.2640    0.2520 o         1 MOL     -0.559530
     73 C24         6.3060   -6.9900    0.5280 c3        1 MOL      0.522992
     74 C25         6.0870   -6.9810    2.0800 c3        1 MOL     -0.173949
     75 O14         6.2200   -8.3530    0.0740 oh        1 MOL     -0.702459
     76 H29         3.5270   -7.0030    0.6490 hn        1 MOL      0.283734
     77 H30         5.6570   -6.2280   -1.2840 h1        1 MOL      0.185236
     78 H31         7.3330   -6.6090    0.4900 h1        1 MOL      0.024848
     79 H32         5.3610   -8.6970   -0.1880 ho        1 MOL      0.411952
     80 H33         5.0140   -7.0630    2.2640 hc        1 MOL      0.035691
     81 H34         6.6370   -7.7450    2.6240 hc        1 MOL      0.035691
     82 H35         6.3500   -5.9760    2.4040 hc        1 MOL      0.035691
     83 N9          4.4640   -3.8840    0.3010 n         1 MOL     -0.203576
     84 C26         4.3090   -2.4470    0.7100 c3        1 MOL     -0.143304
     85 C27         2.9910   -1.9130    0.0990 c         1 MOL      0.368788
     86 O15         2.1780   -2.5930   -0.4780 o         1 MOL     -0.345861
     87 C28         4.1920   -2.2520    2.2570 c3        1 MOL      0.202774
     88 C29         2.9730   -3.0530    2.8200 c3        1 MOL     -0.257747
     89 C30         5.4360   -2.6760    2.9690 c3        1 MOL     -0.501502
     90 C31         2.6370   -2.7020    4.3030 c3        1 MOL     -0.098966
     91 H36         3.5730   -4.3650    0.2430 hn        1 MOL      0.168255
     92 H37         5.1010   -1.8040    0.3480 h1        1 MOL      0.156238
     93 H38         4.1290   -1.1640    2.3910 hc        1 MOL      0.012113
     94 H39         3.0850   -4.1390    2.8350 hc        1 MOL      0.141700
     95 H40         2.1010   -2.6400    2.3160 hc        1 MOL      0.141700
     96 H41         5.4340   -2.2440    3.9680 hc        1 MOL      0.126224
     97 H42         5.6060   -3.7610    2.9970 hc        1 MOL      0.126224
     98 H43         6.2750   -2.3470    2.3660 hc        1 MOL      0.126224
     99 H44         1.7160   -3.2140    4.5820 hc        1 MOL      0.033795
    100 H45         3.4310   -2.9850    4.9960 hc        1 MOL      0.033795
    101 H46         2.5340   -1.6270    4.4320 hc        1 MOL      0.033795
    102 N10         2.8010   -0.5930    0.2750 n         1 MOL     -0.590820
    103 C32         1.7600    0.1900   -0.4590 c3        1 MOL      0.339911
    104 C33         2.2470    1.3240   -1.3000 c         1 MOL      0.515636
    105 O16         1.5330    1.9670   -2.0340 o         1 MOL     -0.543552
    106 C34         0.7000    0.4620    0.6460 c3        1 MOL     -0.306238
    107 C35        -0.4690    1.3050    0.1510 c         1 MOL      0.729834
    108 O17        -1.3700    0.7810   -0.5700 o         1 MOL     -0.725210
    109 O18        -0.5850    2.5310    0.2920 o         1 MOL     -0.725210
    110 H47         3.4290   -0.1520    0.9300 hn        1 MOL      0.317147
    111 H48         1.3640   -0.5080   -1.1990 h1        1 MOL      0.000222
    112 H49         1.2220    1.0080    1.4320 hc        1 MOL      0.101179
    113 H50         0.2890   -0.4700    1.0360 hc        1 MOL      0.101179
    114 N11         3.5270    1.6690   -1.1640 n         1 MOL     -0.409884
    115 C36         4.2000    2.7430   -1.7830 c3        1 MOL      0.348222
    116 C37         4.1640    4.0960   -1.0260 c         1 MOL      0.184646
    117 O19         4.5310    4.0400    0.1270 o         1 MOL     -0.392884
    118 C38         5.5240    2.3290   -2.3080 c3        1 MOL     -0.337829
    119 C39         6.3350    1.5540   -1.3300 ca        1 MOL      0.113365
    120 C40         6.9420    2.0610   -0.1420 ca        1 MOL     -0.169189
    121 C41         6.4090    0.1180   -1.5930 ca        1 MOL     -0.169189
    122 C42         7.6100    1.2040    0.7720 ca        1 MOL     -0.107127
    123 C43         7.0850   -0.6890   -0.7100 ca        1 MOL     -0.107127
    124 C44         7.7290   -0.1230    0.4390 ca        1 MOL     -0.135646
    125 H51         4.0410    1.1540   -0.4550 hn        1 MOL      0.204764
    126 H52         3.6610    3.0240   -2.6990 h1        1 MOL     -0.032028
    127 H53         6.0450    3.2480   -2.5880 hc        1 MOL      0.104650
    128 H54         5.4100    1.7760   -3.2400 hc        1 MOL      0.104650
    129 H55         6.8840    3.1090    0.1220 ha        1 MOL      0.129372
    130 H56         5.9600   -0.3250   -2.4710 ha        1 MOL      0.129372
    131 H57         7.9830    1.6210    1.6990 ha        1 MOL      0.116463
    132 H58         7.0110   -1.7610   -0.8060 ha        1 MOL      0.116463
    133 H59         8.2760   -0.7730    1.1090 ha        1 MOL      0.109827
    134 N12         3.7500    5.1970   -1.6700 n         1 MOL     -0.012445
    135 C45         3.7390    6.5250   -0.9710 c3        1 MOL      0.002783
    136 C46         3.2530    6.5190    0.4550 c         1 MOL      0.234125
    137 O20         3.7980    7.1710    1.2940 o         1 MOL     -0.469033
    138 C47         3.0800    7.5090   -1.9450 c3        1 MOL      0.202460
    139 C48         3.3920    6.9220   -3.2690 c3        1 MOL     -0.134760
    140 C49         3.5880    5.4440   -3.0450 c3        1 MOL      0.009635
    141 H60         4.8080    6.7550   -0.9920 h1        1 MOL      0.045367
    142 H61         2.0100    7.5430   -1.7320 hc        1 MOL     -0.018133
    143 H62         3.4110    8.5360   -1.8290 hc        1 MOL     -0.018133
    144 H63         2.6890    7.2310   -4.0380 hc        1 MOL      0.036184
    145 H64         4.4250    7.2300   -3.4550 hc        1 MOL      0.036184
    146 H65         2.7240    4.8770   -3.3890 h1        1 MOL      0.040778
    147 H66         4.4840    5.1580   -3.6010 h1        1 MOL      0.040778
    148 N13         2.0530    6.0120    0.7500 n         1 MOL     -0.170707
    149 C50         1.3570    6.2570    2.0510 c3        1 MOL     -0.089568
    150 C51         2.1340    5.5400    3.1780 c         1 MOL      0.506738
    151 O21         2.3490    6.0370    4.2580 o         1 MOL     -0.538805
    152 C52        -0.0750    5.7440    1.8740 c3        1 MOL      0.023277
    153 C53        -0.9000    6.7240    1.0470 c3        1 MOL     -0.066194
    154 C54        -2.3530    6.3710    1.1840 c         1 MOL      0.739652
    155 O22        -2.8270    5.5560    0.3320 o         1 MOL     -0.722535
    156 O23        -3.0340    6.9700    2.0290 o         1 MOL     -0.722535
    157 H67         1.5370    5.6760   -0.0500 hn        1 MOL      0.220729
    158 H68         1.4370    7.3090    2.3140 h1        1 MOL      0.116600
    159 H69        -0.3820    5.7110    2.9220 hc        1 MOL      0.004094
    160 H70        -0.0590    4.7600    1.4030 hc        1 MOL      0.004094
    161 H71        -0.6980    6.6610   -0.0250 hc        1 MOL     -0.018619
    162 H72        -0.7390    7.7500    1.3760 hc        1 MOL     -0.018619
    163 N14         2.6750    4.3190    2.8940 n         1 MOL     -0.251790
    164 C55         3.6220    3.5530    3.7050 c3        1 MOL     -0.111043
    165 H73         4.0160    4.1870    4.4980 h1        1 MOL      0.066129
    166 H74         3.1140    2.6950    4.1440 h1        1 MOL      0.066129
    167 H75         4.4430    3.2080    3.0760 h1        1 MOL      0.066129
    168 H76         2.4630    3.8490    2.0180 hn        1 MOL      0.190178
    169 Ca1        -3.2340    2.9040   -0.8780 Ca        1 MOL      1.780569
    170 O24        -1.3320    2.9380   -2.6460 oh        1 MOL     -0.845909
    171 H77        -1.2110    3.2860   -3.5250 ho        1 MOL      0.408794
    172 H78        -0.5970    2.3320   -2.5240 ho        1 MOL      0.408794
    173 O25        -3.5770    4.8410   -2.6560 oh        1 MOL     -0.845909
    174 H79        -3.8150    5.7580   -2.7770 ho        1 MOL      0.408794
    175 H80        -3.9200    4.3910   -3.4300 ho        1 MOL      0.408794
    176 O26        -4.0230    3.5330    1.7590 oh        1 MOL     -0.845909
    177 H81        -4.6670    3.1920    2.3910 ho        1 MOL      0.408794
    178 H82        -3.7300    4.3500    2.1330 ho        1 MOL      0.408794
    179 O27        -5.9030    3.3520   -0.4840 oh        1 MOL     -0.845909
    180 H83        -6.3310    3.5600    0.3570 ho        1 MOL      0.408794
    181 H84        -6.5420    2.8250   -0.9530 ho        1 MOL      0.408794
@<TRIPOS>BOND
     1    1    2 1   
     2    1    4 1   
     3    1    5 1   
     4    1    6 1   
     5    2    3 2   
     6    2    7 1   
     7    7    8 1   
     8    7   15 1   
     9    8    9 1   
    10    8   11 1   
    11    8   16 1   
    12    9   10 2   
    13    9   19 1   
    14   11   12 1   
    15   11   17 1   
    16   11   18 1   
    17   12   13 1   
    18   12   14 1   
    19   19   20 1   
    20   19   24 1   
    21   20   21 1   
    22   20   23 1   
    23   20   25 1   
    24   21   22 2   
    25   21   29 1   
    26   23   26 1   
    27   23   27 1   
    28   23   28 1   
    29   29   30 1   
    30   29   37 1   
    31   30   31 1   
    32   30   33 1   
    33   30   38 1   
    34   31   32 2   
    35   31   41 1   
    36   33   34 1   
    37   33   39 1   
    38   33   40 1   
    39   34   35 1   
    40   34   36 1   
    41   41   42 1   
    42   41   45 1   
    43   42   43 1   
    44   42   46 1   
    45   42   47 1   
    46   43   44 2   
    47   43   48 1   
    48   48   49 1   
    49   48   56 1   
    50   49   50 1   
    51   49   52 1   
    52   49   57 1   
    53   50   51 2   
    54   50   62 1   
    55   52   53 1   
    56   52   58 1   
    57   52   59 1   
    58   53   54 1   
    59   53   55 2   
    60   54   60 1   
    61   54   61 1   
    62   62   63 1   
    63   62   66 1   
    64   63   64 1   
    65   63   67 1   
    66   63   68 1   
    67   64   65 2   
    68   64   69 1   
    69   69   70 1   
    70   69   76 1   
    71   70   71 1   
    72   70   73 1   
    73   70   77 1   
    74   71   72 2   
    75   71   83 1   
    76   73   74 1   
    77   73   75 1   
    78   73   78 1   
    79   74   80 1   
    80   74   81 1   
    81   74   82 1   
    82   75   79 1   
    83   83   84 1   
    84   83   91 1   
    85   84   85 1   
    86   84   87 1   
    87   84   92 1   
    88   85   86 2   
    89   85  102 1   
    90   87   88 1   
    91   87   89 1   
    92   87   93 1   
    93   88   90 1   
    94   88   94 1   
    95   88   95 1   
    96   89   96 1   
    97   89   97 1   
    98   89   98 1   
    99   90   99 1   
   100   90  100 1   
   101   90  101 1   
   102  102  103 1   
   103  102  110 1   
   104  103  104 1   
   105  103  106 1   
   106  103  111 1   
   107  104  105 2   
   108  104  114 1   
   109  106  107 1   
   110  106  112 1   
   111  106  113 1   
   112  107  108 1   
   113  107  109 1   
   114  114  115 1   
   115  114  125 1   
   116  115  116 1   
   117  115  118 1   
   118  115  126 1   
   119  116  117 2   
   120  116  134 1   
   121  118  119 1   
   122  118  127 1   
   123  118  128 1   
   124  119  120 ar  
   125  119  121 ar  
   126  120  122 ar  
   127  120  129 1   
   128  121  123 ar  
   129  121  130 1   
   130  122  124 ar  
   131  122  131 1   
   132  123  124 ar  
   133  123  132 1   
   134  124  133 1   
   135  134  135 1   
   136  134  140 1   
   137  135  136 1   
   138  135  138 1   
   139  135  141 1   
   140  136  137 2   
   141  136  148 1   
   142  138  139 1   
   143  138  142 1   
   144  138  143 1   
   145  139  140 1   
   146  139  144 1   
   147  139  145 1   
   148  140  146 1   
   149  140  147 1   
   150  148  149 1   
   151  148  157 1   
   152  149  150 1   
   153  149  152 1   
   154  149  158 1   
   155  150  151 2   
   156  150  163 1   
   157  152  153 1   
   158  152  159 1   
   159  152  160 1   
   160  153  154 1   
   161  153  161 1   
   162  153  162 1   
   163  154  155 1   
   164  154  156 1   
   165  163  164 1   
   166  163  168 1   
   167  164  165 1   
   168  164  166 1   
   169  164  167 1   
   170  170  171 1   
   171  170  172 1   
   172  173  174 1   
   173  173  175 1   
   174  176  177 1   
   175  176  178 1   
   176  179  180 1   
   177  179  181 1   
@<TRIPOS>SUBSTRUCTURE
     1 MOL         1 TEMP              0 ****  ****    0 ROOT
