@<TRIPOS>MOLECULE
MOL
  185   180     1     0     0
SMALL
resp


@<TRIPOS>ATOM
      1 C1         -5.8560    1.0370   -4.1340 c3        1 MOL     -0.369934
      2 C2         -6.5750    0.9640   -2.7160 c         1 MOL      0.568337
      3 O1         -5.9290    0.8950   -1.6610 o         1 MOL     -0.514633
      4 H1         -6.4160    0.4450   -4.8560 hc        1 MOL      0.107144
      5 H2         -5.8160    2.0740   -4.4680 hc        1 MOL      0.107144
      6 H3         -4.8430    0.6430   -4.0490 hc        1 MOL      0.107144
      7 N1         -7.9120    0.9850   -2.6380 n         1 MOL     -0.549176
      8 C3         -8.7180    1.1240   -1.4490 c3        1 MOL      0.354126
      9 C4         -8.6640    0.0330   -0.3670 c         1 MOL      0.276303
     10 O2         -9.0080    0.2730    0.8050 o         1 MOL     -0.475594
     11 C5         -8.5470    2.5310   -0.8880 c3        1 MOL     -0.286931
     12 C6         -9.8550    2.9400   -0.1740 c         1 MOL      0.758972
     13 O3        -10.9340    2.9100   -0.8330 o         1 MOL     -0.710017
     14 O4         -9.8350    3.4770    0.9350 o         1 MOL     -0.710017
     15 H4         -8.4930    1.0390   -3.4660 hn        1 MOL      0.316294
     16 H5         -9.7460    1.1160   -1.7840 h1        1 MOL     -0.085842
     17 H6         -8.4140    3.2260   -1.7120 hc        1 MOL      0.074146
     18 H7         -7.6790    2.5900   -0.2300 hc        1 MOL      0.074146
     19 N2         -8.0790   -1.1370   -0.7010 n         1 MOL     -0.241071
     20 C7         -7.8460   -2.3540    0.1830 c3        1 MOL      0.126217
     21 C8         -6.3600   -2.5640    0.3380 c         1 MOL      0.655710
     22 O5         -6.0750   -3.5880    0.9340 o         1 MOL     -0.609030
     23 C9         -8.5220   -3.5920   -0.6030 c3        1 MOL     -0.253290
     24 C10        -9.9890   -3.5420   -0.9160 c3        1 MOL      0.164268
     25 C11       -10.8470   -3.0520    0.2220 c3        1 MOL     -0.041599
     26 C12       -12.1540   -2.2800   -0.1100 c3        1 MOL     -0.043393
     27 N3        -12.6890   -1.7450    1.0790 n4        1 MOL     -0.087639
     28 H8         -7.8460   -1.1990   -1.6850 hn        1 MOL      0.176237
     29 H9         -8.1190   -2.2490    1.2380 h1        1 MOL      0.093675
     30 H10        -8.3880   -4.4180    0.0990 hc        1 MOL      0.076821
     31 H11        -7.9870   -3.7890   -1.5300 hc        1 MOL      0.076821
     32 H12       -10.4270   -4.5140   -1.1680 hc        1 MOL     -0.020281
     33 H13       -10.1110   -2.8690   -1.7720 hc        1 MOL     -0.020281
     34 H14       -10.2580   -2.3290    0.8020 hc        1 MOL      0.021532
     35 H15       -11.0830   -3.8500    0.9280 hc        1 MOL      0.021532
     36 H16       -12.8420   -3.0510   -0.4600 hx        1 MOL      0.080748
     37 H17       -12.1950   -1.5290   -0.8940 hx        1 MOL      0.080748
     38 H18       -12.6660   -0.7520    1.2440 hn        1 MOL      0.258399
     39 H19       -13.6650   -2.0140    1.0930 hn        1 MOL      0.258399
     40 H20       -12.2810   -2.1770    1.9030 hn        1 MOL      0.258399
     41 N4         -5.3830   -1.6930    0.0150 n         1 MOL     -0.651530
     42 C13        -3.9070   -2.0900    0.1250 c3        1 MOL      0.135313
     43 C14        -3.4510   -2.2970    1.5990 c         1 MOL      0.579823
     44 O6         -3.7360   -1.6500    2.6350 o         1 MOL     -0.517813
     45 C15        -3.1150   -0.9850   -0.6690 c3        1 MOL     -0.092755
     46 C16        -1.5790   -1.2500   -0.7390 c         1 MOL      0.446779
     47 O7         -0.9550   -1.2730   -1.8240 o         1 MOL     -0.644665
     48 O8         -0.9350   -1.3530    0.3530 o         1 MOL     -0.644665
     49 H21        -5.5650   -0.7280   -0.2050 hn        1 MOL      0.333888
     50 H22        -3.7920   -3.0640   -0.3700 h1        1 MOL      0.031235
     51 H23        -3.1270   -0.1200   -0.0060 hc        1 MOL      0.082900
     52 H24        -3.5660   -0.8830   -1.6470 hc        1 MOL      0.082900
     53 N5         -2.8560   -3.4570    1.7940 n         1 MOL     -0.252644
     54 C17        -2.6010   -4.0080    3.1720 c3        1 MOL     -0.242313
     55 C18        -1.3880   -3.3860    3.9130 c         1 MOL      0.517697
     56 O9         -1.1160   -3.8380    5.0420 o         1 MOL     -0.527020
     57 H25        -2.5790   -4.0420    1.0120 hn        1 MOL      0.219816
     58 H26        -2.4030   -5.0660    3.0700 h1        1 MOL      0.140958
     59 H27        -3.5060   -3.8850    3.7720 h1        1 MOL      0.140958
     60 N6         -0.7360   -2.3450    3.2800 n         1 MOL     -0.304418
     61 C19         0.0680   -1.3340    3.9210 c3        1 MOL      0.076905
     62 C20        -0.3540    0.0950    3.5550 c         1 MOL      0.341951
     63 O10         0.3810    1.0510    3.9320 o         1 MOL     -0.540498
     64 C21         1.5950   -1.7020    3.7290 c3        1 MOL     -0.371370
     65 C22         2.2570   -0.9620    2.6150 c         1 MOL      0.619303
     66 N7          3.3120   -0.2300    2.8920 n         1 MOL     -0.657666
     67 O11         1.9240   -0.9690    1.4380 o         1 MOL     -0.454978
     68 H28        -0.9900   -2.2690    2.3020 hn        1 MOL      0.152062
     69 H29        -0.1880   -1.4030    4.9830 h1        1 MOL      0.116492
     70 H30         1.6670   -2.7900    3.6900 hc        1 MOL      0.124069
     71 H31         2.0880   -1.4460    4.6670 hc        1 MOL      0.124069
     72 H32         3.5030   -0.1710    3.8900 hn        1 MOL      0.318317
     73 H33         3.7660    0.1460    2.0740 hn        1 MOL      0.318317
     74 N8         -1.5060    0.3070    2.9380 n         1 MOL     -0.041211
     75 C23        -2.2200    1.5770    2.7700 c3        1 MOL     -0.191505
     76 C24        -1.5680    2.4650    1.6840 c         1 MOL      0.604114
     77 O12        -1.6960    3.6260    1.8740 o         1 MOL     -0.498064
     78 H34        -2.1140   -0.4950    2.8690 hn        1 MOL      0.110598
     79 H35        -2.1650    2.1140    3.7140 h1        1 MOL      0.108410
     80 H36        -3.2570    1.3450    2.5500 h1        1 MOL      0.108410
     81 N9         -0.8750    1.8340    0.6480 n         1 MOL     -0.434144
     82 C25        -0.1430    2.5770   -0.3500 c3        1 MOL      0.225994
     83 C26         1.1810    1.8860   -0.8480 c         1 MOL      0.129536
     84 O13         1.1600    0.7020   -1.3080 o         1 MOL     -0.401982
     85 C27        -1.0780    2.7540   -1.5880 c3        1 MOL     -0.079963
     86 C28        -1.9690    3.9950   -1.4180 ca        1 MOL     -0.109165
     87 C29        -1.4940    5.2940   -1.5740 ca        1 MOL     -0.048096
     88 C30        -3.3460    3.8930   -1.1370 ca        1 MOL     -0.048096
     89 C31        -2.2790    6.4520   -1.4770 ca        1 MOL     -0.296738
     90 C32        -4.1710    5.0240   -1.1420 ca        1 MOL     -0.296738
     91 C33        -3.7050    6.3420   -1.3230 ca        1 MOL      0.364912
     92 O14        -4.5220    7.4470   -1.2330 oh        1 MOL     -0.524140
     93 H37        -0.9090    0.8250    0.5790 hn        1 MOL      0.195228
     94 H38         0.0810    3.5700    0.0200 h1        1 MOL      0.013604
     95 H39        -1.7260    1.8780   -1.6070 hc        1 MOL      0.078063
     96 H40        -0.5580    2.8550   -2.5340 hc        1 MOL      0.078063
     97 H41        -0.4340    5.4780   -1.6670 ha        1 MOL      0.088178
     98 H42        -3.8230    2.9190   -1.0890 ha        1 MOL      0.088178
     99 H43        -1.7580    7.4000   -1.5090 ha        1 MOL      0.151369
    100 H44        -5.1960    4.9020   -0.8000 ha        1 MOL      0.151369
    101 H45        -5.4180    7.2020   -0.9870 ho        1 MOL      0.402296
    102 N10         2.2500    2.6520   -0.6690 n         1 MOL     -0.149839
    103 C34         3.6160    2.3290   -1.0870 c3        1 MOL     -0.020010
    104 C35         4.4860    2.1690    0.1980 c         1 MOL      0.179457
    105 O15         4.9560    1.0440    0.4160 o         1 MOL     -0.335651
    106 C36         4.1260    3.4190   -2.0880 c3        1 MOL      0.432218
    107 C37         3.1450    3.8740   -3.1910 c3        1 MOL     -0.070405
    108 C38         5.5090    3.1360   -2.7220 c3        1 MOL     -0.456431
    109 C39         2.6740    2.8220   -4.2110 c3        1 MOL     -0.030474
    110 H46         2.1390    3.5680   -0.2760 hn        1 MOL      0.227709
    111 H47         3.6810    1.4250   -1.6930 h1        1 MOL      0.040484
    112 H48         4.2690    4.3620   -1.5600 hc        1 MOL     -0.130472
    113 H49         3.6650    4.6050   -3.8080 hc        1 MOL     -0.002606
    114 H50         2.2940    4.2930   -2.6580 hc        1 MOL     -0.002606
    115 H51         6.1460    2.7140   -1.9410 hc        1 MOL      0.116642
    116 H52         5.3670    2.4250   -3.5330 hc        1 MOL      0.116642
    117 H53         5.9520    4.0730   -3.0640 hc        1 MOL      0.116642
    118 H54         1.8690    3.2270   -4.8290 hc        1 MOL      0.018754
    119 H55         3.4840    2.3940   -4.7960 hc        1 MOL      0.018754
    120 H56         2.2410    1.9760   -3.6930 hc        1 MOL      0.018754
    121 N11         4.5280    3.1560    1.1070 n         1 MOL     -0.178401
    122 C40         4.9900    3.0070    2.4750 c3        1 MOL     -0.239989
    123 C41         6.5200    2.6240    2.5690 c         1 MOL      0.697977
    124 O16         6.8580    2.0330    3.5280 o         1 MOL     -0.517197
    125 C42         4.6170    4.3320    3.3200 c3        1 MOL      0.073528
    126 O17         5.1210    5.3270    2.4390 oh        1 MOL     -0.625324
    127 H57         4.1460    4.0650    0.9050 hn        1 MOL      0.260682
    128 H58         4.3490    2.2540    2.9270 h1        1 MOL      0.129330
    129 H59         5.1350    4.3120    4.2830 h1        1 MOL      0.092558
    130 H60         3.5460    4.4970    3.3820 h1        1 MOL      0.092558
    131 H61         4.6770    6.1370    2.6870 ho        1 MOL      0.426409
    132 N12         7.3860    2.9830    1.6040 n         1 MOL     -0.370062
    133 C43         8.7190    2.4690    1.4170 c3        1 MOL      0.032046
    134 C44         8.6970    0.9110    1.4380 c         1 MOL      0.590894
    135 O18         9.5430    0.3680    2.1170 o         1 MOL     -0.508577
    136 C45         9.7280    3.2030    2.3660 c3        1 MOL     -0.309099
    137 H62         7.0620    3.5810    0.8510 hn        1 MOL      0.243579
    138 H63         8.9520    2.8180    0.4100 h1        1 MOL      0.081658
    139 H64         9.6910    4.2910    2.4120 hc        1 MOL      0.098886
    140 H65         9.5500    2.8440    3.3770 hc        1 MOL      0.098886
    141 H66        10.7710    3.0390    2.1130 hc        1 MOL      0.098886
    142 N13         7.7960    0.2660    0.6120 n         1 MOL     -0.650315
    143 C46         7.7210   -1.1830    0.6610 c3        1 MOL      0.314777
    144 C47         7.2380   -1.6580   -0.7520 c         1 MOL      0.528766
    145 O19         6.6630   -0.9010   -1.5210 o         1 MOL     -0.467384
    146 C48         6.6800   -1.5260    1.6610 c3        1 MOL     -0.325178
    147 H67         7.0730    0.7840    0.1390 hn        1 MOL      0.241706
    148 H68         8.6720   -1.6810    0.8490 h1        1 MOL      0.008539
    149 H69         5.6830   -1.1190    1.4620 hc        1 MOL      0.088148
    150 H70         6.7170   -2.6210    1.6850 hc        1 MOL      0.088148
    151 H71         6.9260   -1.1780    2.6620 hc        1 MOL      0.088148
    152 N14         7.5220   -2.9480   -1.0350 n         1 MOL     -0.634733
    153 C49         7.1030   -3.5610   -2.2940 c3        1 MOL     -0.183790
    154 C50         7.7700   -2.9620   -3.5420 c         1 MOL      0.546244
    155 O20         7.3050   -3.1800   -4.6470 o         1 MOL     -0.503075
    156 C51         5.5840   -3.8090   -2.3070 c3        1 MOL      0.169033
    157 C52         4.9900   -4.6150   -1.1140 c3        1 MOL     -0.150010
    158 C53         3.5130   -5.0330   -1.4220 c         1 MOL      0.653472
    159 O21         2.7580   -4.1240   -1.7390 o         1 MOL     -0.680197
    160 O22         3.1120   -6.2210   -1.3830 o         1 MOL     -0.680197
    161 H72         8.0130   -3.4420   -0.3100 hn        1 MOL      0.370534
    162 H73         7.5780   -4.5280   -2.1260 h1        1 MOL      0.135771
    163 H74         5.3880   -4.2970   -3.2580 hc        1 MOL      0.007808
    164 H75         5.0890   -2.8400   -2.4030 hc        1 MOL      0.007808
    165 H76         4.9420   -4.1470   -0.1290 hc        1 MOL      0.016357
    166 H77         5.5930   -5.5060   -0.9270 hc        1 MOL      0.016357
    167 N15         8.9530   -2.3700   -3.3850 n         1 MOL     -0.416545
    168 C54         9.5950   -1.5860   -4.5090 c3        1 MOL      0.016810
    169 H78        10.6770   -1.7060   -4.4630 h1        1 MOL      0.054471
    170 H79         9.2300   -1.9560   -5.4660 h1        1 MOL      0.054471
    171 H80         9.3430   -0.5310   -4.4060 h1        1 MOL      0.054471
    172 H81         9.2040   -2.1630   -2.4330 hn        1 MOL      0.276276
    173 Ca1         1.3780   -2.1510   -0.9390 Ca        1 MOL      1.740277
    174 O23        -0.0860   -4.2540   -1.0590 oh        1 MOL     -0.900522
    175 H82         0.2440   -4.9320   -1.6480 ho        1 MOL      0.431737
    176 H83        -0.9640   -4.5550   -0.8120 ho        1 MOL      0.431737
    177 O24         1.5690   -2.1010   -3.4760 oh        1 MOL     -0.900522
    178 H84         1.0310   -1.6230   -4.1100 ho        1 MOL      0.431737
    179 H85         1.8970   -2.8620   -3.9620 ho        1 MOL      0.431737
    180 O25         1.9970   -3.9850    1.1490 oh        1 MOL     -0.900522
    181 H86         2.6200   -4.6410    1.4670 ho        1 MOL      0.431737
    182 H87         1.1490   -4.2930    1.4600 ho        1 MOL      0.431737
    183 O26         3.8490   -1.2560   -0.6570 oh        1 MOL     -0.900522
    184 H88         4.5420   -1.1920   -1.3190 ho        1 MOL      0.431737
    185 H89         4.1580   -0.6930    0.0610 ho        1 MOL      0.431737
@<TRIPOS>BOND
     1    1    2 1   
     2    1    4 1   
     3    1    5 1   
     4    1    6 1   
     5    2    3 2   
     6    2    7 1   
     7    7    8 1   
     8    7   15 1   
     9    8    9 1   
    10    8   11 1   
    11    8   16 1   
    12    9   10 2   
    13    9   19 1   
    14   11   12 1   
    15   11   17 1   
    16   11   18 1   
    17   12   13 1   
    18   12   14 1   
    19   19   20 1   
    20   19   28 1   
    21   20   21 1   
    22   20   23 1   
    23   20   29 1   
    24   21   22 2   
    25   21   41 1   
    26   23   24 1   
    27   23   30 1   
    28   23   31 1   
    29   24   25 1   
    30   24   32 1   
    31   24   33 1   
    32   25   26 1   
    33   25   34 1   
    34   25   35 1   
    35   26   27 1   
    36   26   36 1   
    37   26   37 1   
    38   27   38 1   
    39   27   39 1   
    40   27   40 1   
    41   41   42 1   
    42   41   49 1   
    43   42   43 1   
    44   42   45 1   
    45   42   50 1   
    46   43   44 2   
    47   43   53 1   
    48   45   46 1   
    49   45   51 1   
    50   45   52 1   
    51   46   47 1   
    52   46   48 1   
    53   53   54 1   
    54   53   57 1   
    55   54   55 1   
    56   54   58 1   
    57   54   59 1   
    58   55   56 2   
    59   55   60 1   
    60   60   61 1   
    61   60   68 1   
    62   61   62 1   
    63   61   64 1   
    64   61   69 1   
    65   62   63 2   
    66   62   74 1   
    67   64   65 1   
    68   64   70 1   
    69   64   71 1   
    70   65   66 1   
    71   65   67 2   
    72   66   72 1   
    73   66   73 1   
    74   74   75 1   
    75   74   78 1   
    76   75   76 1   
    77   75   79 1   
    78   75   80 1   
    79   76   77 2   
    80   76   81 1   
    81   81   82 1   
    82   81   93 1   
    83   82   83 1   
    84   82   85 1   
    85   82   94 1   
    86   83   84 2   
    87   83  102 1   
    88   85   86 1   
    89   85   95 1   
    90   85   96 1   
    91   86   87 ar  
    92   86   88 ar  
    93   87   89 ar  
    94   87   97 1   
    95   88   90 ar  
    96   88   98 1   
    97   89   91 ar  
    98   89   99 1   
    99   90   91 ar  
   100   90  100 1   
   101   91   92 1   
   102   92  101 1   
   103  102  103 1   
   104  102  110 1   
   105  103  104 1   
   106  103  106 1   
   107  103  111 1   
   108  104  105 2   
   109  104  121 1   
   110  106  107 1   
   111  106  108 1   
   112  106  112 1   
   113  107  109 1   
   114  107  113 1   
   115  107  114 1   
   116  108  115 1   
   117  108  116 1   
   118  108  117 1   
   119  109  118 1   
   120  109  119 1   
   121  109  120 1   
   122  121  122 1   
   123  121  127 1   
   124  122  123 1   
   125  122  125 1   
   126  122  128 1   
   127  123  124 2   
   128  123  132 1   
   129  125  126 1   
   130  125  129 1   
   131  125  130 1   
   132  126  131 1   
   133  132  133 1   
   134  132  137 1   
   135  133  134 1   
   136  133  136 1   
   137  133  138 1   
   138  134  135 2   
   139  134  142 1   
   140  136  139 1   
   141  136  140 1   
   142  136  141 1   
   143  142  143 1   
   144  142  147 1   
   145  143  144 1   
   146  143  146 1   
   147  143  148 1   
   148  144  145 2   
   149  144  152 1   
   150  146  149 1   
   151  146  150 1   
   152  146  151 1   
   153  152  153 1   
   154  152  161 1   
   155  153  154 1   
   156  153  156 1   
   157  153  162 1   
   158  154  155 2   
   159  154  167 1   
   160  156  157 1   
   161  156  163 1   
   162  156  164 1   
   163  157  158 1   
   164  157  165 1   
   165  157  166 1   
   166  158  159 1   
   167  158  160 1   
   168  167  168 1   
   169  167  172 1   
   170  168  169 1   
   171  168  170 1   
   172  168  171 1   
   173  174  175 1   
   174  174  176 1   
   175  177  178 1   
   176  177  179 1   
   177  180  181 1   
   178  180  182 1   
   179  183  184 1   
   180  183  185 1   
@<TRIPOS>SUBSTRUCTURE
     1 MOL         1 TEMP              0 ****  ****    0 ROOT
