@<TRIPOS>MOLECULE
MOL
  198   191     1     0     0
SMALL
resp


@<TRIPOS>ATOM
      1 C1          6.2840    9.2070   -2.3460 c3        1 MOL     -0.364881
      2 C2          5.9420    7.7450   -1.9610 c         1 MOL      0.769026
      3 O1          4.9960    7.6240   -1.2400 o         1 MOL     -0.615557
      4 H1          5.4780    9.8650   -2.0260 hc        1 MOL      0.085451
      5 H2          7.2120    9.5050   -1.8560 hc        1 MOL      0.085451
      6 H3          6.4040    9.2800   -3.4270 hc        1 MOL      0.085451
      7 N1          6.6170    6.7090   -2.4830 n         1 MOL     -0.630903
      8 C3          6.4880    5.2520   -2.2560 c3        1 MOL      0.152612
      9 C4          6.7100    5.1000   -0.7210 c         1 MOL      0.507893
     10 O2          7.5670    5.7010   -0.1010 o         1 MOL     -0.502043
     11 C5          7.4970    4.4740   -3.0640 c3        1 MOL     -0.211860
     12 C6          7.4600    3.0050   -2.7190 c         1 MOL      0.715624
     13 O3          8.5540    2.3730   -2.7370 o         1 MOL     -0.672900
     14 O4          6.3070    2.5120   -2.7250 o         1 MOL     -0.672900
     15 H4          7.4330    6.8990   -3.0470 hn        1 MOL      0.304051
     16 H5          5.4790    4.9270   -2.5230 h1        1 MOL      0.059238
     17 H6          8.4920    4.8330   -2.8050 hc        1 MOL      0.051633
     18 H7          7.2390    4.6310   -4.1050 hc        1 MOL      0.051633
     19 N2          5.7890    4.3620   -0.0130 n         1 MOL     -0.453790
     20 C7          5.5650    4.3200    1.4190 c3        1 MOL      0.270385
     21 C8          6.3910    3.3940    2.2370 c         1 MOL      0.727904
     22 O5          7.0380    3.8580    3.1500 o         1 MOL     -0.616427
     23 C9          4.1400    4.3930    1.8870 c3        1 MOL     -0.151741
     24 C10         3.9820    4.5160    3.3860 c3        1 MOL     -0.137945
     25 C11         2.6080    5.1180    3.8350 c3        1 MOL      0.033685
     26 C12         2.8580    6.6510    3.8200 c3        1 MOL     -0.058752
     27 N3          1.7350    7.4100    4.3250 n4        1 MOL     -0.427239
     28 H8          5.1340    3.8920   -0.6290 hn        1 MOL      0.202209
     29 H9          6.0550    5.2480    1.6940 h1        1 MOL      0.002692
     30 H10         3.5060    3.5840    1.5120 hc        1 MOL      0.047122
     31 H11         3.7290    5.2720    1.3820 hc        1 MOL      0.047122
     32 H12         4.8070    5.1210    3.7570 hc        1 MOL      0.052089
     33 H13         3.9870    3.4660    3.6840 hc        1 MOL      0.052089
     34 H14         2.3460    4.6740    4.7910 hc        1 MOL      0.032905
     35 H15         1.7900    4.8890    3.1390 hc        1 MOL      0.032905
     36 H16         2.9700    6.9250    2.7710 hx        1 MOL      0.140852
     37 H17         3.7230    6.9110    4.4410 hx        1 MOL      0.140852
     38 H18         1.8960    8.4070    4.2550 hn        1 MOL      0.345666
     39 H19         0.8910    7.2670    3.7900 hn        1 MOL      0.345666
     40 H20         1.5130    7.1990    5.2900 hn        1 MOL      0.345666
     41 N4          6.4660    2.0730    2.0360 n         1 MOL     -0.719206
     42 C13         6.0140    1.2830    0.9420 c3        1 MOL      0.103512
     43 C14         7.1120    0.2920    0.5850 c         1 MOL      0.574265
     44 O6          7.6790   -0.3700    1.4020 o         1 MOL     -0.533156
     45 C15         4.6600    0.5560    1.2370 c3        1 MOL     -0.087838
     46 C16         4.4080   -0.5650    0.2390 c         1 MOL      0.249437
     47 O7          3.9470   -0.2860   -0.8770 o         1 MOL     -0.543869
     48 O8          4.6440   -1.7540    0.5710 o         1 MOL     -0.543869
     49 H21         7.1890    1.6730    2.6070 hn        1 MOL      0.341381
     50 H22         6.0400    1.9410    0.0720 h1        1 MOL      0.037594
     51 H23         3.7800    1.2040    1.2240 hc        1 MOL      0.055901
     52 H24         4.5350    0.2230    2.2710 hc        1 MOL      0.055901
     53 N5          7.3250    0.1020   -0.7210 n         1 MOL     -0.273780
     54 C17         8.3260   -0.8020   -1.3390 c3        1 MOL     -0.205813
     55 C18         8.0690   -2.3240   -1.2740 c         1 MOL      0.498648
     56 O9          8.8400   -3.1300   -1.9470 o         1 MOL     -0.572770
     57 H25         6.7700    0.7310   -1.2830 hn        1 MOL      0.235004
     58 H26         9.2220   -0.7190   -0.7230 h1        1 MOL      0.134209
     59 H27         8.5720   -0.5210   -2.3590 h1        1 MOL      0.134209
     60 N6          7.0010   -2.8100   -0.5960 n         1 MOL     -0.320781
     61 C19         6.5680   -4.2490   -0.6690 c3        1 MOL      0.071745
     62 C20         6.6910   -4.9240   -2.0570 c         1 MOL      0.602264
     63 O10         7.0530   -6.1130   -2.1000 o         1 MOL     -0.582011
     64 C21         7.0410   -5.0590    0.5760 c3        1 MOL     -0.103497
     65 C22         6.4430   -4.4670    1.8950 c         1 MOL      0.539257
     66 O11         7.2830   -3.9360    2.6490 o         1 MOL     -0.639934
     67 O12         5.2220   -4.5580    2.1540 o         1 MOL     -0.639934
     68 H28         6.4010   -2.1630   -0.1190 hn        1 MOL      0.338871
     69 H29         5.5140   -4.1870   -0.3930 h1        1 MOL     -0.051543
     70 H30         8.1260   -5.0950    0.6770 hc        1 MOL      0.045962
     71 H31         6.7330   -6.1100    0.5380 hc        1 MOL      0.045962
     72 N7          6.3780   -4.2610   -3.1860 n         1 MOL     -0.420123
     73 C23         5.4730   -3.1000   -3.3060 c3        1 MOL     -0.195428
     74 C24         4.0310   -3.6010   -3.1160 c         1 MOL      0.446626
     75 O13         3.5200   -4.3290   -3.9300 o         1 MOL     -0.541469
     76 H32         6.8770   -4.5560   -4.0150 hn        1 MOL      0.307746
     77 H33         5.6740   -2.7400   -4.3150 h1        1 MOL      0.146997
     78 H34         5.7470   -2.3090   -2.6120 h1        1 MOL      0.146997
     79 N8          3.3380   -3.1250   -2.0420 n         1 MOL     -0.002213
     80 C25         1.8930   -3.3830   -1.8020 c3        1 MOL     -0.311470
     81 C26         1.1640   -2.2330   -0.9360 c         1 MOL      0.567384
     82 O14         1.4830   -2.0040    0.2000 o         1 MOL     -0.344636
     83 C27         1.8030   -4.7560   -1.0990 c3        1 MOL      0.496269
     84 C28         0.3040   -5.1380   -0.8830 c3        1 MOL     -0.687839
     85 O15         2.5100   -4.7150    0.0800 oh        1 MOL     -0.720715
     86 H35         3.8410   -2.5700   -1.3560 hn        1 MOL     -0.002860
     87 H36         1.4730   -3.4600   -2.8100 h1        1 MOL      0.112892
     88 H37         2.2770   -5.5020   -1.7380 h1        1 MOL      0.056565
     89 H38         2.6840   -5.6130    0.3660 ho        1 MOL      0.377888
     90 H39        -0.1350   -5.2620   -1.8700 hc        1 MOL      0.174071
     91 H40         0.1160   -5.9550   -0.1920 hc        1 MOL      0.174071
     92 H41        -0.2210   -4.3830   -0.2960 hc        1 MOL      0.174071
     93 N9          0.1670   -1.5230   -1.5650 n         1 MOL     -0.476708
     94 C29        -0.8890   -0.7770   -0.9290 c3        1 MOL     -0.126383
     95 C30        -1.7840   -1.6130   -0.0850 c         1 MOL      0.622056
     96 O16        -1.2910   -2.3300    0.7850 o         1 MOL     -0.582630
     97 C31        -0.3980    0.4870   -0.2440 c3        1 MOL      0.391460
     98 C32         0.5430    1.2960   -1.1410 c3        1 MOL      0.099494
     99 C33        -1.5680    1.2670    0.2800 c3        1 MOL     -0.409833
    100 C34         0.0440    1.7570   -2.4860 c3        1 MOL     -0.278313
    101 H42         0.1130   -1.6390   -2.5590 hn        1 MOL      0.326802
    102 H43        -1.5760   -0.3760   -1.6820 h1        1 MOL      0.047998
    103 H44         0.1730    0.1730    0.6300 hc        1 MOL     -0.081739
    104 H45         1.4230    0.6700   -1.2980 hc        1 MOL     -0.005066
    105 H46         0.8900    2.1710   -0.6060 hc        1 MOL     -0.005066
    106 H47        -2.3410    1.2710   -0.4920 hc        1 MOL      0.079062
    107 H48        -1.8330    0.8580    1.2500 hc        1 MOL      0.079062
    108 H49        -1.1690    2.2650    0.4290 hc        1 MOL      0.079062
    109 H50         0.7730    2.2550   -3.1120 hc        1 MOL      0.075773
    110 H51        -0.0720    0.9170   -3.1580 hc        1 MOL      0.075773
    111 H52        -0.9150    2.2690   -2.4180 hc        1 MOL      0.075773
    112 N10        -3.1030   -1.7270   -0.2700 n         1 MOL     -0.384389
    113 C35        -4.0250   -2.6050    0.3590 c3        1 MOL     -0.214882
    114 C36        -5.3850   -2.7060   -0.4370 c         1 MOL      0.712644
    115 O17        -5.6230   -1.8080   -1.2720 o         1 MOL     -0.521556
    116 C37        -4.3010   -2.1460    1.8170 c3        1 MOL      0.328923
    117 C38        -4.7820   -0.6910    1.9040 c3        1 MOL     -0.296947
    118 O18        -3.1760   -2.4100    2.6930 oh        1 MOL     -0.614613
    119 H53        -3.5120   -1.0620   -0.9020 hn        1 MOL      0.257367
    120 H54        -3.4750   -3.5370    0.3050 h1        1 MOL      0.129029
    121 H55        -5.1430   -2.7550    2.1470 h1        1 MOL      0.051822
    122 H56        -2.4300   -2.0610    2.1960 ho        1 MOL      0.353459
    123 H57        -5.2180   -0.3810    2.8570 hc        1 MOL      0.102205
    124 H58        -4.0320    0.0350    1.5900 hc        1 MOL      0.102205
    125 H59        -5.5880   -0.4920    1.1940 hc        1 MOL      0.102205
    126 N11        -6.3140   -3.6140   -0.0410 n         1 MOL     -0.797340
    127 C39        -7.6120   -3.6310   -0.7710 c3        1 MOL      0.498929
    128 C40        -8.4450   -2.3780   -0.2570 c         1 MOL      0.362696
    129 O19        -8.4270   -2.1710    0.9400 o         1 MOL     -0.488324
    130 C41        -8.4180   -4.8630   -0.5100 c3        1 MOL      0.240340
    131 C42        -9.6460   -4.9000   -1.4480 c3        1 MOL     -0.227028
    132 O20        -7.6790   -6.0110   -0.8870 oh        1 MOL     -0.621782
    133 H60        -6.1740   -4.1830    0.7880 hn        1 MOL      0.358842
    134 H61        -7.3300   -3.4640   -1.8110 h1        1 MOL     -0.011929
    135 H62        -8.6670   -4.8090    0.5530 h1        1 MOL      0.019527
    136 H63        -7.8330   -6.7460   -0.2930 ho        1 MOL      0.404426
    137 H64        -9.4310   -4.6320   -2.4850 hc        1 MOL      0.054135
    138 H65       -10.0960   -5.8890   -1.4300 hc        1 MOL      0.054135
    139 H66       -10.3580   -4.1260   -1.1470 hc        1 MOL      0.054135
    140 N12        -9.3120   -1.7430   -1.1050 n         1 MOL     -0.521242
    141 C43       -10.1630   -0.5020   -0.8620 c3        1 MOL      0.198644
    142 C44        -9.3080    0.7740   -0.6320 c         1 MOL      0.558424
    143 O21        -8.2080    0.6590    0.0240 o         1 MOL     -0.498575
    144 C45       -11.2880   -0.8400    0.1890 c3        1 MOL     -0.188344
    145 C46       -12.3590    0.1970    0.1650 c3        1 MOL      0.233426
    146 C47       -13.3230    0.0470    1.3020 c3        1 MOL     -0.043842
    147 C48       -14.4310    1.0820    1.0500 c3        1 MOL      0.173354
    148 N13       -15.4250    1.1620    2.1640 n4        1 MOL     -0.231193
    149 H67        -9.3650   -2.0780   -2.0570 hn        1 MOL      0.263628
    150 H68       -10.6930   -0.2200   -1.7690 h1        1 MOL      0.015814
    151 H69       -10.8280   -0.7960    1.1770 hc        1 MOL      0.067893
    152 H70       -11.6550   -1.8480   -0.0080 hc        1 MOL      0.067893
    153 H71       -12.8170   -0.0840   -0.7800 hc        1 MOL     -0.054720
    154 H72       -11.8300    1.1500    0.2220 hc        1 MOL     -0.054720
    155 H73       -12.7620    0.1890    2.2180 hc        1 MOL      0.014652
    156 H74       -13.7770   -0.9470    1.3410 hc        1 MOL      0.014652
    157 H75       -15.0010    0.7610    0.1760 hx        1 MOL      0.019112
    158 H76       -14.0330    2.0380    0.7390 hx        1 MOL      0.019112
    159 H77       -15.0560    1.3570    3.0840 hn        1 MOL      0.242338
    160 H78       -16.1720    1.8170    1.9600 hn        1 MOL      0.242338
    161 H79       -15.8260    0.2340    2.2060 hn        1 MOL      0.242338
    162 N14        -9.6690    1.8860   -1.2960 n         1 MOL     -0.471222
    163 C49        -8.9350    3.1390   -1.0720 c3        1 MOL      0.326094
    164 C50        -7.4470    3.2600   -1.5220 c         1 MOL      0.380560
    165 O22        -6.6150    3.6700   -0.7330 o         1 MOL     -0.486878
    166 C51        -9.8370    4.2870   -1.6110 c3        1 MOL     -0.023485
    167 C52        -9.2910    5.6630   -1.2910 c3        1 MOL     -0.147808
    168 C53        -9.0990    5.9440    0.1780 c         1 MOL      0.669093
    169 O23        -8.2700    6.8030    0.5990 o         1 MOL     -0.650674
    170 O24        -9.7130    5.2330    0.9950 o         1 MOL     -0.650674
    171 H80       -10.4940    1.9000   -1.8720 hn        1 MOL      0.203881
    172 H81        -8.8830    3.2780    0.0140 h1        1 MOL      0.020994
    173 H82       -10.8550    4.1730   -1.2340 hc        1 MOL     -0.008019
    174 H83        -9.7660    4.2120   -2.6970 hc        1 MOL     -0.008019
    175 H84        -9.9960    6.4060   -1.6700 hc        1 MOL      0.023445
    176 H85        -8.3540    5.7850   -1.8420 hc        1 MOL      0.023445
    177 N15        -6.9340    2.8090   -2.6980 n         1 MOL     -0.360384
    178 C54        -7.7060    2.1470   -3.8300 c3        1 MOL     -0.029935
    179 H86        -8.3420    2.8860   -4.3160 h1        1 MOL      0.043448
    180 H87        -7.0040    1.7370   -4.5580 h1        1 MOL      0.043448
    181 H88        -8.3240    1.3440   -3.4290 h1        1 MOL      0.043448
    182 H89        -5.9200    2.7800   -2.7200 hn        1 MOL      0.278834
    183 Ca1         2.9970   -3.1410    2.0390 Ca        1 MOL      1.686474
    184 O25         4.9580   -1.9140    3.3640 oh        1 MOL     -0.797999
    185 H90         5.8600   -2.1860    3.2220 ho        1 MOL      0.393626
    186 H91         4.9970   -1.3030    4.0950 ho        1 MOL      0.393626
    187 O26         2.6030   -2.9380    4.8650 oh        1 MOL     -0.797999
    188 H92         2.8990   -3.3940    5.6530 ho        1 MOL      0.393626
    189 H93         1.8570   -2.4260    5.1490 ho        1 MOL      0.393626
    190 O27         2.6120   -5.5800    2.9190 oh        1 MOL     -0.797999
    191 H94         2.1790   -6.3840    2.6260 ho        1 MOL      0.393626
    192 H95         3.5340   -5.8210    2.9900 ho        1 MOL      0.393626
    193 O28         0.2890   -3.4340    2.6490 oh        1 MOL     -0.797999
    194 H96        -0.2770   -4.0220    3.1500 ho        1 MOL      0.393626
    195 H97        -0.2680   -3.0830    1.9600 ho        1 MOL      0.393626
    196 O29         2.0490   -0.9210    2.8290 oh        1 MOL     -0.797999
    197 H98         1.1310   -0.7780    2.6450 ho        1 MOL      0.393626
    198 H99         2.3130   -0.1600    3.3610 ho        1 MOL      0.393626
@<TRIPOS>BOND
     1    1    2 1   
     2    1    4 1   
     3    1    5 1   
     4    1    6 1   
     5    2    3 2   
     6    2    7 1   
     7    7    8 1   
     8    7   15 1   
     9    8    9 1   
    10    8   11 1   
    11    8   16 1   
    12    9   10 2   
    13    9   19 1   
    14   11   12 1   
    15   11   17 1   
    16   11   18 1   
    17   12   13 1   
    18   12   14 1   
    19   19   20 1   
    20   19   28 1   
    21   20   21 1   
    22   20   23 1   
    23   20   29 1   
    24   21   22 2   
    25   21   41 1   
    26   23   24 1   
    27   23   30 1   
    28   23   31 1   
    29   24   25 1   
    30   24   32 1   
    31   24   33 1   
    32   25   26 1   
    33   25   34 1   
    34   25   35 1   
    35   26   27 1   
    36   26   36 1   
    37   26   37 1   
    38   27   38 1   
    39   27   39 1   
    40   27   40 1   
    41   41   42 1   
    42   41   49 1   
    43   42   43 1   
    44   42   45 1   
    45   42   50 1   
    46   43   44 2   
    47   43   53 1   
    48   45   46 1   
    49   45   51 1   
    50   45   52 1   
    51   46   47 1   
    52   46   48 1   
    53   53   54 1   
    54   53   57 1   
    55   54   55 1   
    56   54   58 1   
    57   54   59 1   
    58   55   56 2   
    59   55   60 1   
    60   60   61 1   
    61   60   68 1   
    62   61   62 1   
    63   61   64 1   
    64   61   69 1   
    65   62   63 2   
    66   62   72 1   
    67   64   65 1   
    68   64   70 1   
    69   64   71 1   
    70   65   66 1   
    71   65   67 1   
    72   72   73 1   
    73   72   76 1   
    74   73   74 1   
    75   73   77 1   
    76   73   78 1   
    77   74   75 2   
    78   74   79 1   
    79   79   80 1   
    80   79   86 1   
    81   80   81 1   
    82   80   83 1   
    83   80   87 1   
    84   81   82 2   
    85   81   93 1   
    86   83   84 1   
    87   83   85 1   
    88   83   88 1   
    89   84   90 1   
    90   84   91 1   
    91   84   92 1   
    92   85   89 1   
    93   93   94 1   
    94   93  101 1   
    95   94   95 1   
    96   94   97 1   
    97   94  102 1   
    98   95   96 2   
    99   95  112 1   
   100   97   98 1   
   101   97   99 1   
   102   97  103 1   
   103   98  100 1   
   104   98  104 1   
   105   98  105 1   
   106   99  106 1   
   107   99  107 1   
   108   99  108 1   
   109  100  109 1   
   110  100  110 1   
   111  100  111 1   
   112  112  113 1   
   113  112  119 1   
   114  113  114 1   
   115  113  116 1   
   116  113  120 1   
   117  114  115 2   
   118  114  126 1   
   119  116  117 1   
   120  116  118 1   
   121  116  121 1   
   122  117  123 1   
   123  117  124 1   
   124  117  125 1   
   125  118  122 1   
   126  126  127 1   
   127  126  133 1   
   128  127  128 1   
   129  127  130 1   
   130  127  134 1   
   131  128  129 2   
   132  128  140 1   
   133  130  131 1   
   134  130  132 1   
   135  130  135 1   
   136  131  137 1   
   137  131  138 1   
   138  131  139 1   
   139  132  136 1   
   140  140  141 1   
   141  140  149 1   
   142  141  142 1   
   143  141  144 1   
   144  141  150 1   
   145  142  143 2   
   146  142  162 1   
   147  144  145 1   
   148  144  151 1   
   149  144  152 1   
   150  145  146 1   
   151  145  153 1   
   152  145  154 1   
   153  146  147 1   
   154  146  155 1   
   155  146  156 1   
   156  147  148 1   
   157  147  157 1   
   158  147  158 1   
   159  148  159 1   
   160  148  160 1   
   161  148  161 1   
   162  162  163 1   
   163  162  171 1   
   164  163  164 1   
   165  163  166 1   
   166  163  172 1   
   167  164  165 2   
   168  164  177 1   
   169  166  167 1   
   170  166  173 1   
   171  166  174 1   
   172  167  168 1   
   173  167  175 1   
   174  167  176 1   
   175  168  169 1   
   176  168  170 1   
   177  177  178 1   
   178  177  182 1   
   179  178  179 1   
   180  178  180 1   
   181  178  181 1   
   182  184  185 1   
   183  184  186 1   
   184  187  188 1   
   185  187  189 1   
   186  190  191 1   
   187  190  192 1   
   188  193  194 1   
   189  193  195 1   
   190  196  197 1   
   191  196  198 1   
@<TRIPOS>SUBSTRUCTURE
     1 MOL         1 TEMP              0 ****  ****    0 ROOT
