@<TRIPOS>MOLECULE
MOL
  187   181     1     0     0
SMALL
resp


@<TRIPOS>ATOM
      1 C1         -2.7260   -2.8880   -4.0900 c3        1 MOL     -0.357126
      2 C2         -3.9660   -2.5010   -3.2080 c         1 MOL      0.718245
      3 O1         -4.0780   -1.3950   -2.6880 o         1 MOL     -0.594925
      4 H1         -2.9940   -2.8170   -5.1450 hc        1 MOL      0.088036
      5 H2         -1.9020   -2.2060   -3.8790 hc        1 MOL      0.088036
      6 H3         -2.4210   -3.9090   -3.8620 hc        1 MOL      0.088036
      7 N1         -4.9370   -3.4090   -3.1620 n         1 MOL     -0.722840
      8 C3         -6.2560   -3.1060   -2.5110 c3        1 MOL      0.511264
      9 C4         -6.2190   -2.8570   -0.9510 c         1 MOL      0.413132
     10 O2         -5.3400   -3.4170   -0.3360 o         1 MOL     -0.501618
     11 C5         -7.1670   -4.3660   -2.8090 c3        1 MOL     -0.445568
     12 C6         -8.6580   -4.1260   -2.5290 c         1 MOL      0.767231
     13 O3         -9.1270   -3.0000   -2.2790 o         1 MOL     -0.699664
     14 O4         -9.4790   -5.0540   -2.6240 o         1 MOL     -0.699664
     15 H4         -4.7060   -4.3610   -3.4160 hn        1 MOL      0.340457
     16 H5         -6.6370   -2.1820   -2.9400 h1        1 MOL     -0.047198
     17 H6         -6.8120   -5.2540   -2.2840 hc        1 MOL      0.077210
     18 H7         -7.0320   -4.5190   -3.8720 hc        1 MOL      0.077210
     19 N2         -7.1100   -2.0880   -0.4240 n         1 MOL     -0.544993
     20 C7         -6.8180   -1.5420    0.9460 c3        1 MOL      0.353016
     21 C8         -6.9750   -0.0470    1.1570 c         1 MOL      0.462078
     22 O5         -7.0480    0.3920    2.3130 o         1 MOL     -0.530245
     23 C9         -7.7170   -2.3770    1.8460 c3        1 MOL     -0.331580
     24 H8         -7.8510   -1.6800   -0.9710 hn        1 MOL      0.403694
     25 H9         -5.8050   -1.8080    1.2200 h1        1 MOL     -0.015304
     26 H10        -7.5860   -3.4020    1.5080 hc        1 MOL      0.083697
     27 H11        -7.4640   -2.4150    2.9100 hc        1 MOL      0.083697
     28 H12        -8.7480   -2.0350    1.8450 hc        1 MOL      0.083697
     29 N3         -7.0200    0.6850    0.0380 n         1 MOL     -0.464862
     30 C10        -7.4890    2.1100    0.0930 c3        1 MOL      0.115242
     31 C11        -6.3520    3.1690   -0.1590 c         1 MOL      0.471735
     32 O6         -6.2650    4.2480    0.5080 o         1 MOL     -0.522861
     33 C12        -8.7190    2.3210   -0.8070 c3        1 MOL     -0.204579
     34 C13        -9.9380    1.4650   -0.4010 c         1 MOL      0.833018
     35 O7        -10.4800    1.7590    0.7240 o         1 MOL     -0.741460
     36 O8        -10.3020    0.6090   -1.1510 o         1 MOL     -0.741460
     37 H13        -6.9650    0.2670   -0.8790 hn        1 MOL      0.223022
     38 H14        -7.8760    2.3320    1.0840 h1        1 MOL      0.066166
     39 H15        -8.3740    2.0910   -1.8140 hc        1 MOL      0.000580
     40 H16        -9.1470    3.3220   -0.7710 hc        1 MOL      0.000580
     41 N4         -5.3210    2.6720   -0.9010 n         1 MOL     -0.466801
     42 C14        -3.9430    3.2040   -1.0190 c3        1 MOL     -0.159726
     43 C15        -3.1430    3.3550    0.2270 c         1 MOL      0.665041
     44 O9         -3.5940    3.0110    1.3440 o         1 MOL     -0.489151
     45 H17        -5.4760    1.7480   -1.2780 hn        1 MOL      0.329018
     46 H18        -4.0540    4.2370   -1.3570 h1        1 MOL      0.106339
     47 H19        -3.3490    2.6380   -1.7270 h1        1 MOL      0.106339
     48 N5         -1.9210    3.9260    0.1800 n         1 MOL     -0.363842
     49 C16        -1.1750    4.2390    1.3700 c3        1 MOL     -0.161011
     50 C17        -0.1700    5.3310    1.0830 c         1 MOL      0.588685
     51 O10         0.1730    5.4920   -0.0450 o         1 MOL     -0.462299
     52 C18        -0.4640    2.8860    1.8060 c3        1 MOL     -0.783502
     53 C19         0.2380    3.0760    3.0970 c         1 MOL      0.836214
     54 N6          1.5270    3.1630    3.0940 n         1 MOL     -0.806663
     55 O11        -0.2740    2.9900    4.2190 o         1 MOL     -0.639087
     56 H20        -1.5940    4.1960   -0.7410 hn        1 MOL      0.200745
     57 H21        -1.8680    4.4630    2.1780 h1        1 MOL      0.127737
     58 H22         0.2260    2.4880    1.0720 hc        1 MOL      0.330953
     59 H23        -1.2070    2.0930    1.9010 hc        1 MOL      0.330953
     60 H24         1.9610    3.0230    2.1980 hn        1 MOL      0.367551
     61 H25         2.0730    3.1960    3.9520 hn        1 MOL      0.367551
     62 N7          0.2770    6.1080    2.0700 n         1 MOL     -0.310823
     63 C20         1.1280    7.3010    1.9060 c3        1 MOL     -0.184654
     64 C21         2.5820    7.0900    1.3930 c         1 MOL      0.532784
     65 O12         3.4920    6.5000    2.0170 o         1 MOL     -0.492141
     66 H26        -0.0800    5.9510    2.9950 hn        1 MOL      0.288488
     67 H27         1.1960    7.7690    2.8830 h1        1 MOL      0.094947
     68 H28         0.5850    7.9960    1.2620 h1        1 MOL      0.094947
     69 N8          2.7640    7.6130    0.1550 n         1 MOL     -0.401835
     70 C22         4.0280    7.6040   -0.6540 c3        1 MOL     -0.235118
     71 C23         4.3090    6.2130   -1.2630 c         1 MOL      0.480003
     72 O13         5.4180    6.0060   -1.7540 o         1 MOL     -0.578879
     73 C24         4.1940    8.6700   -1.7810 c3        1 MOL      0.624199
     74 C25         3.6770    8.3180   -3.1740 c3        1 MOL     -0.394680
     75 O14         3.5900    9.8570   -1.4800 oh        1 MOL     -0.674477
     76 H29         1.9700    8.1330   -0.2060 hn        1 MOL      0.267675
     77 H30         4.8610    7.8120    0.0140 h1        1 MOL      0.147675
     78 H31         5.2760    8.8210   -1.8460 h1        1 MOL     -0.010850
     79 H32         2.6480    9.6790   -1.5000 ho        1 MOL      0.384020
     80 H33         2.6820    7.8860   -3.1090 hc        1 MOL      0.087010
     81 H34         3.7050    9.1710   -3.8510 hc        1 MOL      0.087010
     82 H35         4.4450    7.6750   -3.6000 hc        1 MOL      0.087010
     83 N9          3.3710    5.2620   -1.2140 n         1 MOL     -0.057375
     84 C26         3.5480    3.8100   -1.6120 c3        1 MOL     -0.071874
     85 C27         3.1260    2.8170   -0.5050 c         1 MOL      0.392098
     86 O15         2.6790    3.2190    0.5520 o         1 MOL     -0.380706
     87 C28         2.7420    3.5490   -2.9450 c3        1 MOL      0.084897
     88 C29         1.2250    3.6340   -2.6380 c3        1 MOL      0.057361
     89 C30         3.0670    4.4820   -4.0980 c3        1 MOL     -0.189444
     90 C31         0.3580    3.0540   -3.6790 c3        1 MOL     -0.250742
     91 H36         2.4770    5.4870   -0.7870 hn        1 MOL      0.035602
     92 H37         4.5630    3.5790   -1.9490 h1        1 MOL      0.088696
     93 H38         3.0410    2.5390   -3.2040 hc        1 MOL     -0.005592
     94 H39         0.9270    4.6740   -2.5180 hc        1 MOL      0.039533
     95 H40         0.9270    3.1030   -1.7300 hc        1 MOL      0.039533
     96 H41         4.1310    4.6840   -4.1910 hc        1 MOL      0.049398
     97 H42         2.7590    4.0610   -5.0540 hc        1 MOL      0.049398
     98 H43         2.5200    5.4190   -3.9980 hc        1 MOL      0.049398
     99 H44        -0.5840    2.8050   -3.1930 hc        1 MOL      0.059422
    100 H45         0.2640    3.6990   -4.5490 hc        1 MOL      0.059422
    101 H46         0.8610    2.1270   -3.9610 hc        1 MOL      0.059422
    102 N10         3.3400    1.4990   -0.7740 n         1 MOL     -0.465189
    103 C32         2.8580    0.3960    0.1000 c3        1 MOL     -0.122254
    104 C33         3.7720   -0.8710    0.1380 c         1 MOL      0.611782
    105 O16         3.3490   -1.9980    0.2700 o         1 MOL     -0.511648
    106 C34         1.3860    0.1320   -0.2040 c3        1 MOL      0.013994
    107 C35         0.5040   -0.6100    0.8850 c         1 MOL      0.464778
    108 O17         0.8310   -0.5430    2.1180 o         1 MOL     -0.669427
    109 O18        -0.6800   -0.8670    0.6110 o         1 MOL     -0.669427
    110 H47         3.7710    1.2340   -1.6450 hn        1 MOL      0.320753
    111 H48         2.9260    0.6810    1.1540 h1        1 MOL      0.080688
    112 H49         1.3560   -0.5240   -1.0830 hc        1 MOL      0.025061
    113 H50         0.9910    1.1230   -0.4230 hc        1 MOL      0.025061
    114 N11         5.0570   -0.6960   -0.0560 n         1 MOL     -0.356751
    115 C36         6.0810   -1.6740    0.3600 c3        1 MOL      0.059144
    116 C37         5.7850   -3.0130   -0.4100 c         1 MOL      0.543423
    117 O19         5.6780   -3.0390   -1.6420 o         1 MOL     -0.575558
    118 C38         7.4620   -1.0990    0.1410 c3        1 MOL     -0.297992
    119 C39         8.6040   -2.1790    0.4690 ca        1 MOL      0.082426
    120 C40         9.0100   -2.2640    1.7960 ca        1 MOL     -0.149026
    121 C41         9.0790   -3.0580   -0.5220 ca        1 MOL     -0.149026
    122 C42         9.9340   -3.2470    2.1670 ca        1 MOL     -0.137122
    123 C43         9.9080   -4.0420   -0.0910 ca        1 MOL     -0.137122
    124 C44        10.3820   -4.1800    1.2400 ca        1 MOL     -0.098498
    125 H51         5.3070    0.1230   -0.5960 hn        1 MOL      0.212513
    126 H52         5.9060   -1.8830    1.4090 h1        1 MOL      0.038565
    127 H53         7.5620   -0.2100    0.7590 hc        1 MOL      0.115415
    128 H54         7.4790   -0.7240   -0.8830 hc        1 MOL      0.115415
    129 H55         8.7070   -1.4310    2.4190 ha        1 MOL      0.122180
    130 H56         8.7520   -2.9190   -1.5430 ha        1 MOL      0.122180
    131 H57        10.3410   -3.3120    3.1660 ha        1 MOL      0.106622
    132 H58        10.3500   -4.6130   -0.8940 ha        1 MOL      0.106622
    133 H59        11.1540   -4.9000    1.4610 ha        1 MOL      0.101770
    134 N12         5.7000   -4.1220    0.3210 n         1 MOL      0.013408
    135 C45         5.7000   -5.4620   -0.2550 c3        1 MOL     -0.155265
    136 C46         4.4200   -5.6190   -1.1780 c         1 MOL      0.429385
    137 O20         4.2860   -6.5950   -1.8890 o         1 MOL     -0.531338
    138 C47         5.7180   -6.4080    0.9760 c3        1 MOL      0.034549
    139 C48         4.9700   -5.5840    2.0050 c3        1 MOL      0.083186
    140 C49         5.5970   -4.2430    1.8130 c3        1 MOL     -0.245570
    141 H60         6.5640   -5.6670   -0.8900 h1        1 MOL      0.089695
    142 H61         5.2580   -7.3640    0.7380 hc        1 MOL      0.017308
    143 H62         6.7010   -6.6400    1.3770 hc        1 MOL      0.017308
    144 H63         3.9140   -5.6520    1.7390 hc        1 MOL     -0.004872
    145 H64         5.0790   -6.0160    2.9990 hc        1 MOL     -0.004872
    146 H65         4.9750   -3.4910    2.2850 h1        1 MOL      0.096496
    147 H66         6.5750   -4.2210    2.2830 h1        1 MOL      0.096496
    148 N13         3.4510   -4.7020   -1.1160 n         1 MOL     -0.020012
    149 C50         2.3280   -4.7140   -2.0600 c3        1 MOL     -0.310227
    150 C51         2.5710   -3.9640   -3.3750 c         1 MOL      0.499656
    151 O21         2.0270   -4.3210   -4.4340 o         1 MOL     -0.521568
    152 C52         1.0970   -4.1370   -1.2480 c3        1 MOL      0.200082
    153 C53         0.7560   -4.9310    0.0370 c3        1 MOL     -0.124659
    154 C54        -0.4340   -4.4310    0.8420 c         1 MOL      0.738287
    155 O22        -1.5500   -4.7910    0.4310 o         1 MOL     -0.715997
    156 O23        -0.2610   -3.7210    1.8400 o         1 MOL     -0.715997
    157 H67         3.6180   -3.8170   -0.6720 hn        1 MOL      0.103494
    158 H68         2.1310   -5.7550   -2.3160 h1        1 MOL      0.155465
    159 H69         0.2550   -4.0530   -1.9250 hc        1 MOL      0.004095
    160 H70         1.3690   -3.1380   -0.9270 hc        1 MOL      0.004095
    161 H71         1.5790   -4.9190    0.7560 hc        1 MOL     -0.009821
    162 H72         0.5530   -5.9840   -0.1510 hc        1 MOL     -0.009821
    163 N14         3.3340   -2.8120   -3.3150 n         1 MOL     -0.206962
    164 C55         3.5660   -1.9730   -4.4910 c3        1 MOL     -0.181458
    165 H73         3.0070   -2.3730   -5.3370 h1        1 MOL      0.079074
    166 H74         3.2320   -0.9560   -4.2850 h1        1 MOL      0.079074
    167 H75         4.6290   -1.9670   -4.7290 h1        1 MOL      0.079074
    168 H76         3.8300   -2.5660   -2.4680 hn        1 MOL      0.190809
    169 Ca1        -1.3040   -1.7320    3.0300 Ca        1 MOL      1.682017
    170 O24        -1.7820   -4.3110    4.1230 oh        1 MOL     -0.790719
    171 H77        -2.3570   -5.0280    4.4040 ho        1 MOL      0.389285
    172 H78        -0.9220   -4.5440    4.4810 ho        1 MOL      0.389285
    173 O25        -3.0490    0.1860    2.4360 oh        1 MOL     -0.790719
    174 O26        -3.4110   -3.2480    1.7650 oh        1 MOL     -0.790719
    175 H79        -3.3420    0.8380    3.0710 ho        1 MOL      0.389285
    176 H80        -4.0270   -2.9540    1.0910 ho        1 MOL      0.389285
    177 H81        -3.2750    0.5620    1.5880 ho        1 MOL      0.389285
    178 H82        -2.7990   -3.8160    1.2910 ho        1 MOL      0.389285
    179 O27         0.6570   -2.3780    4.9250 oh        1 MOL     -0.790719
    180 H83         1.2980   -2.9670    4.5210 ho        1 MOL      0.389285
    181 H84         0.9740   -2.2540    5.8180 ho        1 MOL      0.389285
    182 O28        -1.0930    0.4270    4.8820 oh        1 MOL     -0.790719
    183 H85        -1.1440    1.3770    4.8260 ho        1 MOL      0.389285
    184 H86        -1.4910    0.2160    5.7230 ho        1 MOL      0.389285
    185 O29        -3.4220   -1.7310    4.5500 oh        1 MOL     -0.790719
    186 H87        -3.9410   -2.5400    4.6360 ho        1 MOL      0.389285
    187 H88        -3.7700   -1.1600    5.2290 ho        1 MOL      0.389285
@<TRIPOS>BOND
     1    1    2 1   
     2    1    4 1   
     3    1    5 1   
     4    1    6 1   
     5    2    3 2   
     6    2    7 1   
     7    7    8 1   
     8    7   15 1   
     9    8    9 1   
    10    8   11 1   
    11    8   16 1   
    12    9   10 2   
    13    9   19 1   
    14   11   12 1   
    15   11   17 1   
    16   11   18 1   
    17   12   13 1   
    18   12   14 1   
    19   19   20 1   
    20   19   24 1   
    21   20   21 1   
    22   20   23 1   
    23   20   25 1   
    24   21   22 2   
    25   21   29 1   
    26   23   26 1   
    27   23   27 1   
    28   23   28 1   
    29   29   30 1   
    30   29   37 1   
    31   30   31 1   
    32   30   33 1   
    33   30   38 1   
    34   31   32 2   
    35   31   41 1   
    36   33   34 1   
    37   33   39 1   
    38   33   40 1   
    39   34   35 1   
    40   34   36 1   
    41   41   42 1   
    42   41   45 1   
    43   42   43 1   
    44   42   46 1   
    45   42   47 1   
    46   43   44 2   
    47   43   48 1   
    48   48   49 1   
    49   48   56 1   
    50   49   50 1   
    51   49   52 1   
    52   49   57 1   
    53   50   51 2   
    54   50   62 1   
    55   52   53 1   
    56   52   58 1   
    57   52   59 1   
    58   53   54 1   
    59   53   55 2   
    60   54   60 1   
    61   54   61 1   
    62   62   63 1   
    63   62   66 1   
    64   63   64 1   
    65   63   67 1   
    66   63   68 1   
    67   64   65 2   
    68   64   69 1   
    69   69   70 1   
    70   69   76 1   
    71   70   71 1   
    72   70   73 1   
    73   70   77 1   
    74   71   72 2   
    75   71   83 1   
    76   73   74 1   
    77   73   75 1   
    78   73   78 1   
    79   74   80 1   
    80   74   81 1   
    81   74   82 1   
    82   75   79 1   
    83   83   84 1   
    84   83   91 1   
    85   84   85 1   
    86   84   87 1   
    87   84   92 1   
    88   85   86 2   
    89   85  102 1   
    90   87   88 1   
    91   87   89 1   
    92   87   93 1   
    93   88   90 1   
    94   88   94 1   
    95   88   95 1   
    96   89   96 1   
    97   89   97 1   
    98   89   98 1   
    99   90   99 1   
   100   90  100 1   
   101   90  101 1   
   102  102  103 1   
   103  102  110 1   
   104  103  104 1   
   105  103  106 1   
   106  103  111 1   
   107  104  105 2   
   108  104  114 1   
   109  106  107 1   
   110  106  112 1   
   111  106  113 1   
   112  107  108 1   
   113  107  109 1   
   114  114  115 1   
   115  114  125 1   
   116  115  116 1   
   117  115  118 1   
   118  115  126 1   
   119  116  117 2   
   120  116  134 1   
   121  118  119 1   
   122  118  127 1   
   123  118  128 1   
   124  119  120 ar  
   125  119  121 ar  
   126  120  122 ar  
   127  120  129 1   
   128  121  123 ar  
   129  121  130 1   
   130  122  124 ar  
   131  122  131 1   
   132  123  124 ar  
   133  123  132 1   
   134  124  133 1   
   135  134  135 1   
   136  134  140 1   
   137  135  136 1   
   138  135  138 1   
   139  135  141 1   
   140  136  137 2   
   141  136  148 1   
   142  138  139 1   
   143  138  142 1   
   144  138  143 1   
   145  139  140 1   
   146  139  144 1   
   147  139  145 1   
   148  140  146 1   
   149  140  147 1   
   150  148  149 1   
   151  148  157 1   
   152  149  150 1   
   153  149  152 1   
   154  149  158 1   
   155  150  151 2   
   156  150  163 1   
   157  152  153 1   
   158  152  159 1   
   159  152  160 1   
   160  153  154 1   
   161  153  161 1   
   162  153  162 1   
   163  154  155 1   
   164  154  156 1   
   165  163  164 1   
   166  163  168 1   
   167  164  165 1   
   168  164  166 1   
   169  164  167 1   
   170  170  171 1   
   171  170  172 1   
   172  173  175 1   
   173  173  177 1   
   174  174  176 1   
   175  174  178 1   
   176  179  180 1   
   177  179  181 1   
   178  182  183 1   
   179  182  184 1   
   180  185  186 1   
   181  185  187 1   
@<TRIPOS>SUBSTRUCTURE
     1 MOL         1 TEMP              0 ****  ****    0 ROOT
