@<TRIPOS>MOLECULE
MOL
  189   185     1     0     0
SMALL
resp


@<TRIPOS>ATOM
      1 C1          9.5270    1.4220    1.0450 c3        1 MOL     -0.452670
      2 C2          8.3240    0.7190    0.4230 c         1 MOL      0.801313
      3 O1          7.3730    0.3630    1.1490 o         1 MOL     -0.692126
      4 H1          9.1820    2.1640    1.7650 hc        1 MOL      0.114890
      5 H2         10.1530    0.6880    1.5540 hc        1 MOL      0.114890
      6 H3         10.1050    1.9150    0.2630 hc        1 MOL      0.114890
      7 N1          8.3960    0.3990   -0.8430 n         1 MOL     -0.591339
      8 C3          7.3000   -0.1780   -1.6790 c3        1 MOL      0.117898
      9 C4          7.1470   -1.6730   -1.4490 c         1 MOL      0.507657
     10 O2          7.2030   -2.4870   -2.3740 o         1 MOL     -0.503664
     11 C5          7.5950    0.1360   -3.1510 c3        1 MOL     -0.244929
     12 C6          8.0500    1.5730   -3.3470 c         1 MOL      0.793169
     13 O3          9.2760    1.7140   -3.4500 o         1 MOL     -0.741443
     14 O4          7.2140    2.4780   -3.3030 o         1 MOL     -0.741443
     15 H4          9.2320    0.6480   -1.3420 hn        1 MOL      0.309031
     16 H5          6.3600    0.3170   -1.4330 h1        1 MOL      0.105625
     17 H6          6.7640   -0.1250   -3.7960 hc        1 MOL      0.051587
     18 H7          8.3940   -0.5100   -3.5070 hc        1 MOL      0.051587
     19 N2          6.8050   -2.0920   -0.2220 n         1 MOL     -0.253479
     20 C7          6.4600   -3.4250    0.2920 c3        1 MOL     -0.019096
     21 C8          5.0740   -3.7510   -0.2830 c         1 MOL      0.548615
     22 O5          4.7640   -4.7950   -0.8770 o         1 MOL     -0.560652
     23 C9          6.5240   -3.6800    1.8500 c3        1 MOL     -0.017798
     24 C10         7.8030   -3.4260    2.5810 c3        1 MOL      0.214800
     25 C11         8.8720   -4.4770    2.3410 c3        1 MOL     -0.380077
     26 C12        10.2280   -4.0040    2.8400 c3        1 MOL     -0.032299
     27 N3         10.2300   -3.9250    4.2560 n4        1 MOL     -0.181560
     28 H8          6.8920   -1.3860    0.4870 hn        1 MOL      0.060494
     29 H9          7.2350   -4.0990   -0.0860 h1        1 MOL      0.051625
     30 H10         6.4510   -4.7710    1.8970 hc        1 MOL      0.006696
     31 H11         5.7230   -3.1770    2.3950 hc        1 MOL      0.006696
     32 H12         7.5380   -3.3930    3.6350 hc        1 MOL     -0.024747
     33 H13         8.1830   -2.4140    2.4340 hc        1 MOL     -0.024747
     34 H14         8.9270   -4.4870    1.2510 hc        1 MOL      0.155078
     35 H15         8.6430   -5.4670    2.7260 hc        1 MOL      0.155078
     36 H16        10.4990   -3.0280    2.4410 hx        1 MOL      0.111461
     37 H17        10.9530   -4.7860    2.6190 hx        1 MOL      0.111461
     38 H18        11.1480   -3.8520    4.6550 hn        1 MOL      0.284079
     39 H19         9.7050   -3.1000    4.5350 hn        1 MOL      0.284079
     40 H20         9.8090   -4.7400    4.6670 hn        1 MOL      0.284079
     41 N4          4.0200   -2.9510   -0.1110 n         1 MOL     -0.439624
     42 C13         4.0540   -1.6370    0.6630 c3        1 MOL     -0.019722
     43 C14         3.8510   -0.4900   -0.4170 c         1 MOL      0.375952
     44 O6          3.4600   -0.7120   -1.5760 o         1 MOL     -0.440167
     45 C15         2.9870   -1.6340    1.7800 c3        1 MOL     -0.488090
     46 C16         1.5090   -1.7220    1.3060 c         1 MOL      0.977732
     47 O7          1.0080   -0.9320    0.5070 o         1 MOL     -0.792209
     48 O8          0.7850   -2.6850    1.6890 o         1 MOL     -0.792209
     49 H21         3.1150   -3.1880   -0.5080 hn        1 MOL      0.371836
     50 H22         5.0160   -1.4980    1.1520 h1        1 MOL      0.211226
     51 H23         3.0420   -0.6910    2.3270 hc        1 MOL      0.102005
     52 H24         3.1830   -2.4880    2.4410 hc        1 MOL      0.102005
     53 N5          4.2000    0.7530   -0.0700 n         1 MOL     -0.314925
     54 C17         4.1130    1.8460   -0.9980 c3        1 MOL      0.038761
     55 C18         2.7550    2.4860   -1.0950 c         1 MOL      0.713993
     56 O9          1.7390    2.1120   -0.4970 o         1 MOL     -0.650393
     57 H25         4.4770    0.8540    0.8960 hn        1 MOL      0.266595
     58 H26         4.3530    1.5570   -2.0130 h1        1 MOL      0.059942
     59 H27         4.8010    2.6410   -0.6950 h1        1 MOL      0.059942
     60 N6          2.7220    3.5770   -1.8960 n         1 MOL     -0.702996
     61 C19         1.5670    4.4320   -2.1630 c3        1 MOL      0.492224
     62 C20         1.8170    5.9710   -2.0380 c         1 MOL      0.438466
     63 O10         2.9070    6.3580   -1.7070 o         1 MOL     -0.510382
     64 C21         1.0630    4.0350   -3.6010 c3        1 MOL     -0.312183
     65 C22         0.8150    2.5130   -3.7090 c         1 MOL      0.789919
     66 O11         1.4910    1.7880   -4.4570 o         1 MOL     -0.704378
     67 O12        -0.0920    1.9850   -3.0730 o         1 MOL     -0.704378
     68 H28         3.5540    3.9400   -2.3570 hn        1 MOL      0.355800
     69 H29         0.7360    4.0860   -1.5430 h1        1 MOL     -0.072007
     70 H30         1.7170    4.4970   -4.3450 hc        1 MOL      0.045836
     71 H31         0.0830    4.4800   -3.8080 hc        1 MOL      0.045836
     72 N7          0.7790    6.8490   -2.0860 n         1 MOL     -0.490991
     73 C23        -0.6500    6.7020   -1.9730 c3        1 MOL     -0.016854
     74 C24        -1.0760    6.0500   -0.6420 c         1 MOL      0.599029
     75 O13        -0.2860    6.0200    0.3450 o         1 MOL     -0.501311
     76 H32         1.1230    7.8020   -2.1140 hn        1 MOL      0.322940
     77 H33        -1.0270    6.1250   -2.8100 h1        1 MOL      0.063648
     78 H34        -1.1780    7.6630   -1.9950 h1        1 MOL      0.063648
     79 N8         -2.2540    5.5250   -0.5960 n         1 MOL     -0.594811
     80 C25        -2.8220    4.9290    0.6650 c3        1 MOL     -0.024500
     81 C26        -2.1040    3.6750    1.0700 c         1 MOL      1.126834
     82 O14        -1.7830    2.8570    0.2060 o         1 MOL     -0.772865
     83 C27        -4.3720    4.6960    0.6600 c3        1 MOL      0.325778
     84 C28        -4.8610    3.4520   -0.1640 c3        1 MOL     -0.159296
     85 O15        -4.9900    5.7930    0.1080 oh        1 MOL     -0.576195
     86 H35        -2.8640    5.4680   -1.4030 hn        1 MOL      0.340814
     87 H36        -2.5110    5.5770    1.4810 h1        1 MOL      0.024780
     88 H37        -4.6520    4.5350    1.7030 h1        1 MOL     -0.058785
     89 H38        -4.8440    6.4720    0.7730 ho        1 MOL      0.380833
     90 H39        -4.4690    2.5580    0.3180 hc        1 MOL      0.037939
     91 H40        -5.9420    3.3050   -0.1300 hc        1 MOL      0.037939
     92 H41        -4.5700    3.5120   -1.2140 hc        1 MOL      0.037939
     93 N9         -1.8330    3.5320    2.3630 n         1 MOL     -0.897481
     94 C29        -0.9200    2.5670    3.0170 c3        1 MOL     -0.055618
     95 C30        -1.4640    1.1090    2.8450 c         1 MOL      0.935195
     96 O16        -1.3620    0.5770    1.7680 o         1 MOL     -0.665913
     97 C31         0.6080    2.8050    2.7010 c3        1 MOL      0.062917
     98 C32         0.9880    4.2440    3.1520 c3        1 MOL      0.141798
     99 C33         1.5050    1.8170    3.4590 c3        1 MOL     -0.525623
    100 C34         2.2070    4.8300    2.4430 c3        1 MOL     -0.005254
    101 H42        -2.1450    4.2450    3.0020 hn        1 MOL      0.368574
    102 H43        -1.0540    2.8260    4.0650 h1        1 MOL      0.060260
    103 H44         0.7860    2.6330    1.6430 hc        1 MOL      0.072313
    104 H45         1.1210    4.1980    4.2320 hc        1 MOL     -0.037753
    105 H46         0.1960    4.9410    2.8830 hc        1 MOL     -0.037753
    106 H47         2.5680    2.0760    3.4670 hc        1 MOL      0.126549
    107 H48         1.1690    1.8690    4.5000 hc        1 MOL      0.126549
    108 H49         1.4030    0.7940    3.1250 hc        1 MOL      0.126549
    109 H50         2.9890    4.0770    2.3460 hc        1 MOL      0.000808
    110 H51         1.9710    5.2760    1.4750 hc        1 MOL      0.000808
    111 H52         2.5200    5.5950    3.1470 hc        1 MOL      0.000808
    112 N10        -1.8820    0.5140    3.9090 n         1 MOL     -0.567709
    113 C35        -2.2860   -0.9050    3.9380 c3        1 MOL     -0.110182
    114 C36        -3.6970   -1.2270    3.2900 c         1 MOL      0.368511
    115 O17        -3.9810   -2.4440    3.1310 o         1 MOL     -0.511074
    116 C37        -2.3860   -1.4330    5.3760 c3        1 MOL      0.577354
    117 C38        -3.5010   -0.9130    6.2630 c3        1 MOL     -0.254884
    118 O18        -1.2260   -1.2280    6.1070 oh        1 MOL     -0.643876
    119 H53        -1.5280    0.8760    4.7850 hn        1 MOL      0.280617
    120 H54        -1.5520   -1.5200    3.4190 h1        1 MOL      0.080910
    121 H55        -2.5360   -2.5130    5.4390 h1        1 MOL     -0.031497
    122 H56        -0.5610   -1.7650    5.6750 ho        1 MOL      0.391086
    123 H57        -3.4430    0.1770    6.3610 hc        1 MOL      0.059129
    124 H58        -4.4440   -1.1190    5.7560 hc        1 MOL      0.059129
    125 H59        -3.4490   -1.3750    7.2480 hc        1 MOL      0.059129
    126 N11        -4.5020   -0.2500    2.8100 n         1 MOL     -0.172601
    127 C39        -5.8080   -0.5100    2.1440 c3        1 MOL     -0.044251
    128 C40        -5.7330   -0.9180    0.6670 c         1 MOL      0.642932
    129 O19        -4.9840   -0.3420   -0.0510 o         1 MOL     -0.479503
    130 C41        -6.6480    0.7900    2.0120 c3        1 MOL      0.086767
    131 C42        -7.9850    0.7040    1.3370 c3        1 MOL     -0.305741
    132 O20        -7.1050    1.1620    3.2890 oh        1 MOL     -0.578397
    133 H60        -4.2680    0.7290    2.9130 hn        1 MOL      0.145839
    134 H61        -6.2900   -1.2770    2.7450 h1        1 MOL      0.105790
    135 H62        -6.1280    1.6380    1.5730 h1        1 MOL      0.155354
    136 H63        -6.3820    1.6250    3.7190 ho        1 MOL      0.373736
    137 H64        -8.5640    1.6030    1.4960 hc        1 MOL      0.095712
    138 H65        -7.8680    0.6250    0.2540 hc        1 MOL      0.095712
    139 H66        -8.5200   -0.1700    1.7010 hc        1 MOL      0.095712
    140 N12        -6.5170   -1.9970    0.3650 n         1 MOL     -0.647758
    141 C43        -6.6330   -2.5960   -1.0010 c3        1 MOL      0.136511
    142 C44        -5.3370   -2.7660   -1.6910 c         1 MOL      0.519393
    143 O21        -5.2040   -2.3750   -2.8580 o         1 MOL     -0.516302
    144 C45        -7.7450   -1.9240   -1.8370 c3        1 MOL     -0.342992
    145 C46        -9.0390   -2.0670   -1.1190 c3        1 MOL     -0.050448
    146 C47       -10.1790   -1.3600   -1.8430 c3        1 MOL      0.250321
    147 C48       -11.3860   -1.2450   -0.9130 c3        1 MOL      0.019695
    148 N13       -12.3250   -0.3530   -1.4700 n4        1 MOL     -0.156027
    149 H67        -7.2070   -2.2840    1.0480 hn        1 MOL      0.324332
    150 H68        -7.0030   -3.6200   -0.9350 h1        1 MOL      0.086771
    151 H69        -7.8260   -2.3300   -2.8470 hc        1 MOL      0.124817
    152 H70        -7.4680   -0.8770   -1.9410 hc        1 MOL      0.124817
    153 H71        -8.9230   -1.7240   -0.0930 hc        1 MOL      0.046259
    154 H72        -9.3030   -3.1170   -0.9970 hc        1 MOL      0.046259
    155 H73       -10.5010   -1.8090   -2.7820 hc        1 MOL     -0.045131
    156 H74        -9.8680   -0.3350   -2.0280 hc        1 MOL     -0.045131
    157 H75       -10.9750   -0.8620    0.0260 hx        1 MOL      0.031981
    158 H76       -11.7370   -2.2680   -0.7990 hx        1 MOL      0.031981
    159 H77       -11.8270    0.5260   -1.3900 hn        1 MOL      0.193974
    160 H78       -12.5390   -0.6280   -2.4190 hn        1 MOL      0.193974
    161 H79       -13.1400   -0.2920   -0.8790 hn        1 MOL      0.193974
    162 N14        -4.3290   -3.4350   -1.0950 n         1 MOL     -0.633807
    163 C49        -2.9740   -3.5740   -1.6220 c3        1 MOL      0.683857
    164 C50        -1.8760   -3.1590   -0.6480 c         1 MOL      0.177086
    165 O22        -1.3490   -2.0890   -0.9190 o         1 MOL     -0.497855
    166 C51        -2.6810   -4.8810   -2.4610 c3        1 MOL     -0.234528
    167 C52        -3.8150   -5.0950   -3.4770 c3        1 MOL     -0.220857
    168 C53        -3.5240   -6.3510   -4.2680 c         1 MOL      0.725508
    169 O23        -2.6790   -6.3170   -5.1990 o         1 MOL     -0.623015
    170 O24        -4.2790   -7.2770   -4.1680 o         1 MOL     -0.623015
    171 H80        -4.5820   -3.7520   -0.1710 hn        1 MOL      0.287142
    172 H81        -2.8820   -2.7830   -2.3670 h1        1 MOL     -0.031878
    173 H82        -2.6650   -5.7400   -1.7890 hc        1 MOL      0.069281
    174 H83        -1.7140   -4.8310   -2.9450 hc        1 MOL      0.069281
    175 H84        -3.8670   -4.2380   -4.1470 hc        1 MOL      0.071764
    176 H85        -4.8160   -5.2080   -3.0410 hc        1 MOL      0.071764
    177 N15        -1.4940   -3.7690    0.4720 n         1 MOL     -0.222321
    178 C54        -1.9160   -5.1160    0.8780 c3        1 MOL     -0.031163
    179 H86        -1.1330   -5.8310    0.6280 h1        1 MOL      0.028736
    180 H87        -2.0930   -5.1330    1.9530 h1        1 MOL      0.028736
    181 H88        -2.8330   -5.3840    0.3530 h1        1 MOL      0.028736
    182 H89        -0.8130   -3.2870    1.0370 hn        1 MOL      0.340648
    183 Ca1        -0.6250    0.4760   -0.8800 Ca        1 MOL      1.841974
    184 O25        -3.1740    0.6460   -1.5800 oh        1 MOL     -1.024417
    185 H90        -3.6430    1.1630   -2.2400 ho        1 MOL      0.471106
    186 H91        -3.8540    0.1950   -1.0880 ho        1 MOL      0.471106
    187 O26         0.6070   -0.7000   -3.0810 oh        1 MOL     -1.024417
    188 H92         1.0410    0.0680   -3.4600 ho        1 MOL      0.471106
    189 H93         0.8870   -1.4350   -3.6270 ho        1 MOL      0.471106
@<TRIPOS>BOND
     1    1    2 1   
     2    1    4 1   
     3    1    5 1   
     4    1    6 1   
     5    2    3 2   
     6    2    7 1   
     7    7    8 1   
     8    7   15 1   
     9    8    9 1   
    10    8   11 1   
    11    8   16 1   
    12    9   10 2   
    13    9   19 1   
    14   11   12 1   
    15   11   17 1   
    16   11   18 1   
    17   12   13 1   
    18   12   14 1   
    19   19   20 1   
    20   19   28 1   
    21   20   21 1   
    22   20   23 1   
    23   20   29 1   
    24   21   22 2   
    25   21   41 1   
    26   23   24 1   
    27   23   30 1   
    28   23   31 1   
    29   24   25 1   
    30   24   32 1   
    31   24   33 1   
    32   25   26 1   
    33   25   34 1   
    34   25   35 1   
    35   26   27 1   
    36   26   36 1   
    37   26   37 1   
    38   27   38 1   
    39   27   39 1   
    40   27   40 1   
    41   41   42 1   
    42   41   49 1   
    43   42   43 1   
    44   42   45 1   
    45   42   50 1   
    46   43   44 2   
    47   43   53 1   
    48   45   46 1   
    49   45   51 1   
    50   45   52 1   
    51   46   47 1   
    52   46   48 1   
    53   53   54 1   
    54   53   57 1   
    55   54   55 1   
    56   54   58 1   
    57   54   59 1   
    58   55   56 2   
    59   55   60 1   
    60   60   61 1   
    61   60   68 1   
    62   61   62 1   
    63   61   64 1   
    64   61   69 1   
    65   62   63 2   
    66   62   72 1   
    67   64   65 1   
    68   64   70 1   
    69   64   71 1   
    70   65   66 1   
    71   65   67 1   
    72   72   73 1   
    73   72   76 1   
    74   73   74 1   
    75   73   77 1   
    76   73   78 1   
    77   74   75 2   
    78   74   79 1   
    79   79   80 1   
    80   79   86 1   
    81   80   81 1   
    82   80   83 1   
    83   80   87 1   
    84   81   82 2   
    85   81   93 1   
    86   83   84 1   
    87   83   85 1   
    88   83   88 1   
    89   84   90 1   
    90   84   91 1   
    91   84   92 1   
    92   85   89 1   
    93   93   94 1   
    94   93  101 1   
    95   94   95 1   
    96   94   97 1   
    97   94  102 1   
    98   95   96 2   
    99   95  112 1   
   100   97   98 1   
   101   97   99 1   
   102   97  103 1   
   103   98  100 1   
   104   98  104 1   
   105   98  105 1   
   106   99  106 1   
   107   99  107 1   
   108   99  108 1   
   109  100  109 1   
   110  100  110 1   
   111  100  111 1   
   112  112  113 1   
   113  112  119 1   
   114  113  114 1   
   115  113  116 1   
   116  113  120 1   
   117  114  115 2   
   118  114  126 1   
   119  116  117 1   
   120  116  118 1   
   121  116  121 1   
   122  117  123 1   
   123  117  124 1   
   124  117  125 1   
   125  118  122 1   
   126  126  127 1   
   127  126  133 1   
   128  127  128 1   
   129  127  130 1   
   130  127  134 1   
   131  128  129 2   
   132  128  140 1   
   133  130  131 1   
   134  130  132 1   
   135  130  135 1   
   136  131  137 1   
   137  131  138 1   
   138  131  139 1   
   139  132  136 1   
   140  140  141 1   
   141  140  149 1   
   142  141  142 1   
   143  141  144 1   
   144  141  150 1   
   145  142  143 2   
   146  142  162 1   
   147  144  145 1   
   148  144  151 1   
   149  144  152 1   
   150  145  146 1   
   151  145  153 1   
   152  145  154 1   
   153  146  147 1   
   154  146  155 1   
   155  146  156 1   
   156  147  148 1   
   157  147  157 1   
   158  147  158 1   
   159  148  159 1   
   160  148  160 1   
   161  148  161 1   
   162  162  163 1   
   163  162  171 1   
   164  163  164 1   
   165  163  166 1   
   166  163  172 1   
   167  164  165 2   
   168  164  177 1   
   169  166  167 1   
   170  166  173 1   
   171  166  174 1   
   172  167  168 1   
   173  167  175 1   
   174  167  176 1   
   175  168  169 1   
   176  168  170 1   
   177  177  178 1   
   178  177  182 1   
   179  178  179 1   
   180  178  180 1   
   181  178  181 1   
   182  184  185 1   
   183  184  186 1   
   184  187  188 1   
   185  187  189 1   
@<TRIPOS>SUBSTRUCTURE
     1 MOL         1 TEMP              0 ****  ****    0 ROOT
