@<TRIPOS>MOLECULE
MOL
  198   191     1     0     0
SMALL
resp


@<TRIPOS>ATOM
      1 C1         -6.6110   -3.2260    4.7380 c3        1 MOL     -0.250726
      2 C2         -5.8860   -2.5550    3.5390 c         1 MOL      0.799203
      3 O1         -5.2850   -3.3190    2.7750 o         1 MOL     -0.604624
      4 H1         -6.7730   -2.4870    5.5230 hc        1 MOL      0.054235
      5 H2         -7.5710   -3.6220    4.4080 hc        1 MOL      0.054235
      6 H3         -5.9970   -4.0380    5.1260 hc        1 MOL      0.054235
      7 N1         -5.9990   -1.2180    3.4030 n         1 MOL     -0.811683
      8 C3         -5.4370   -0.4780    2.2050 c3        1 MOL      0.605571
      9 C4         -3.8640   -0.4700    2.0110 c         1 MOL     -0.023451
     10 O2         -3.4190    0.2080    1.0460 o         1 MOL      0.003011
     11 C5         -5.9790    0.9310    2.1390 c3        1 MOL     -0.252680
     12 C6         -7.4760    1.0680    2.2930 c         1 MOL      0.787964
     13 O3         -8.0920    1.5340    1.3370 o         1 MOL     -0.728095
     14 O4         -7.9440    0.7380    3.3880 o         1 MOL     -0.728095
     15 H4         -6.7370   -0.7390    3.8890 hn        1 MOL      0.357059
     16 H5         -5.7980   -0.9540    1.2820 h1        1 MOL     -0.021353
     17 H6         -5.6100    1.3290    1.1850 hc        1 MOL     -0.030160
     18 H7         -5.4890    1.4940    2.9290 hc        1 MOL     -0.030160
     19 N2         -3.0970   -1.1000    2.8840 n         1 MOL     -0.344574
     20 C7         -1.5810   -0.9000    2.8700 c3        1 MOL      0.297555
     21 C8         -0.7920   -2.1250    2.3510 c         1 MOL      0.292938
     22 O5         -1.0010   -3.2200    2.8960 o         1 MOL     -0.492463
     23 C9         -1.0290   -0.4480    4.2050 c3        1 MOL     -0.538937
     24 C10        -1.3500    1.0530    4.5960 c3        1 MOL      0.052646
     25 C11        -0.8780    1.3300    6.0590 c3        1 MOL      0.103213
     26 C12        -1.6390    2.4760    6.6650 c3        1 MOL      0.052575
     27 N3         -1.1580    2.6550    8.0430 n4        1 MOL     -0.225298
     28 H8         -3.5990   -1.5190    3.6500 hn        1 MOL      0.255481
     29 H9         -1.4430   -0.1130    2.1300 h1        1 MOL     -0.041373
     30 H10         0.0600   -0.5360    4.1660 hc        1 MOL      0.178202
     31 H11        -1.3560   -1.1460    4.9740 hc        1 MOL      0.178202
     32 H12        -2.4010    1.3170    4.5840 hc        1 MOL      0.053221
     33 H13        -0.8770    1.6930    3.8460 hc        1 MOL      0.053221
     34 H14         0.1890    1.5370    6.1220 hc        1 MOL     -0.008853
     35 H15        -1.0720    0.4500    6.6750 hc        1 MOL     -0.008853
     36 H16        -2.6840    2.1900    6.7260 hx        1 MOL      0.050015
     37 H17        -1.4660    3.3130    5.9950 hx        1 MOL      0.050015
     38 H18        -1.1350    1.7620    8.5230 hn        1 MOL      0.269139
     39 H19        -0.2040    2.9530    8.1670 hn        1 MOL      0.269139
     40 H20        -1.8120    3.2500    8.5170 hn        1 MOL      0.269139
     41 N4          0.1740   -2.0820    1.4390 n         1 MOL      0.005856
     42 C13         0.7190   -0.9560    0.7690 c3        1 MOL     -0.552234
     43 C14         1.2350    0.1650    1.6980 c         1 MOL      0.537415
     44 O6          0.6480    1.2280    1.8290 o         1 MOL     -0.537864
     45 C15        -0.0620   -0.4850   -0.5120 c3        1 MOL     -0.248808
     46 C16        -0.1330   -1.4990   -1.6780 c         1 MOL      0.201250
     47 O7          0.7460   -2.4270   -1.7050 o         1 MOL     -0.564755
     48 O8         -0.8540   -1.2550   -2.6850 o         1 MOL     -0.564755
     49 H21         0.5240   -2.9940    1.1800 hn        1 MOL      0.121956
     50 H22         1.6850   -1.2030    0.3290 h1        1 MOL      0.269308
     51 H23         0.5160    0.3820   -0.8270 hc        1 MOL      0.239051
     52 H24        -1.0860   -0.2390   -0.2370 hc        1 MOL      0.239051
     53 N5          2.4040    0.0810    2.3210 n         1 MOL     -0.368478
     54 C17         3.3260   -1.0610    2.2930 c3        1 MOL      0.047322
     55 C18         4.4720   -0.9200    3.2920 c         1 MOL      0.430324
     56 O9          4.5320   -0.0010    4.0820 o         1 MOL     -0.515274
     57 H25         2.7990    0.9210    2.7220 hn        1 MOL      0.275435
     58 H26         3.6750   -1.0590    1.2570 h1        1 MOL      0.043155
     59 H27         2.7230   -1.9630    2.4100 h1        1 MOL      0.043155
     60 N6          5.5270   -1.7100    3.2230 n         1 MOL     -0.334646
     61 C19         5.7970   -2.8090    2.3270 c3        1 MOL     -0.030720
     62 C20         6.5420   -2.2450    1.0690 c         1 MOL      0.567503
     63 O10         7.0730   -1.1370    1.1720 o         1 MOL     -0.449936
     64 C21         6.6450   -3.9310    2.9310 c3        1 MOL     -0.325567
     65 C22         8.0750   -3.4880    3.3540 c         1 MOL      0.758558
     66 O11         9.0850   -3.8270    2.6670 o         1 MOL     -0.669425
     67 O12         8.2170   -2.8280    4.3840 o         1 MOL     -0.669425
     68 H28         6.2240   -1.5130    3.9310 hn        1 MOL      0.303914
     69 H29         4.8690   -3.2350    1.9330 h1        1 MOL      0.053644
     70 H30         6.7380   -4.8110    2.3030 hc        1 MOL      0.062642
     71 H31         5.9960   -4.3160    3.7170 hc        1 MOL      0.062642
     72 N7          6.4310   -2.8690   -0.0940 n         1 MOL     -0.433072
     73 C23         7.0880   -2.4110   -1.2850 c3        1 MOL     -0.223850
     74 C24         6.6500   -1.0040   -1.8130 c         1 MOL      0.458432
     75 O13         7.1140   -0.6110   -2.9210 o         1 MOL     -0.554795
     76 H32         5.9870   -3.7810   -0.0920 hn        1 MOL      0.240104
     77 H33         6.9220   -3.0940   -2.1220 h1        1 MOL      0.151165
     78 H34         8.1720   -2.4360   -1.1610 h1        1 MOL      0.151165
     79 N8          5.6400   -0.3200   -1.2690 n         1 MOL     -0.344280
     80 C25         4.9030    0.8600   -1.7640 c3        1 MOL      0.203265
     81 C26         4.8720    1.9180   -0.6530 c         1 MOL      0.280911
     82 O14         4.7290    1.6190    0.4950 o         1 MOL     -0.374289
     83 C27         3.4350    0.5690   -2.1510 c3        1 MOL      0.658123
     84 C28         3.2530   -0.4850   -3.2610 c3        1 MOL     -0.378280
     85 O15         2.7710    1.7340   -2.6030 oh        1 MOL     -0.729598
     86 H35         5.5290   -0.4810   -0.2780 hn        1 MOL      0.189723
     87 H36         5.4140    1.3260   -2.6060 h1        1 MOL      0.018115
     88 H37         2.9260    0.1690   -1.2760 h1        1 MOL     -0.161366
     89 H38         1.8640    1.6750   -2.2780 ho        1 MOL      0.414718
     90 H39         3.5070   -1.4190   -2.7640 hc        1 MOL      0.088265
     91 H40         2.1910   -0.4430   -3.4920 hc        1 MOL      0.088265
     92 H41         3.8420   -0.3130   -4.1580 hc        1 MOL      0.088265
     93 N9          5.1310    3.1730   -1.0190 n         1 MOL     -0.276168
     94 C29         5.1430    4.3700   -0.1600 c3        1 MOL     -0.106298
     95 C30         3.6830    5.0440   -0.1380 c         1 MOL      0.403038
     96 O16         3.5040    6.0920    0.5260 o         1 MOL     -0.552641
     97 C31         6.2340    5.3880   -0.5150 c3        1 MOL      0.188077
     98 C32         6.1520    6.1070   -1.9240 c3        1 MOL      0.055362
     99 C33         7.6080    4.6750   -0.5340 c3        1 MOL     -0.284822
    100 C34         6.0160    7.6720   -1.6980 c3        1 MOL     -0.455141
    101 H42         5.3620    3.3030   -1.9900 hn        1 MOL      0.236994
    102 H43         5.3750    3.9630    0.8300 h1        1 MOL      0.122209
    103 H44         6.3110    6.1040    0.3080 hc        1 MOL      0.025791
    104 H45         5.3180    5.6590   -2.4620 hc        1 MOL      0.013696
    105 H46         7.0250    5.7980   -2.4990 hc        1 MOL      0.013696
    106 H47         7.7800    4.0420   -1.4030 hc        1 MOL      0.070136
    107 H48         8.4560    5.3340   -0.7180 hc        1 MOL      0.070136
    108 H49         7.8370    4.0940    0.3590 hc        1 MOL      0.070136
    109 H50         5.9970    8.2560   -2.6190 hc        1 MOL      0.120170
    110 H51         5.0210    7.8880   -1.2940 hc        1 MOL      0.120170
    111 H52         6.7580    7.8420   -0.9120 hc        1 MOL      0.120170
    112 N10         2.7560    4.4230   -0.8620 n         1 MOL     -0.170941
    113 C35         1.3300    4.9100   -1.0530 c3        1 MOL     -0.044864
    114 C36         0.3230    3.6910   -1.0070 c         1 MOL      0.483747
    115 O17         0.5690    2.6380   -1.5160 o         1 MOL     -0.451798
    116 C37         1.2390    5.6050   -2.4240 c3        1 MOL      0.397739
    117 C38         1.2540    4.6630   -3.6350 c3        1 MOL     -0.352064
    118 O18         2.2840    6.5160   -2.5920 oh        1 MOL     -0.563321
    119 H53         3.0740    3.6050   -1.3580 hn        1 MOL      0.114345
    120 H54         1.1440    5.6970   -0.3190 h1        1 MOL      0.062093
    121 H55         0.2890    6.1300   -2.4770 h1        1 MOL     -0.060091
    122 H56         2.0950    7.1720   -1.9210 ho        1 MOL      0.354496
    123 H57         1.8940    3.8240   -3.3450 hc        1 MOL      0.108761
    124 H58         0.2590    4.2650   -3.8340 hc        1 MOL      0.108761
    125 H59         1.7130    5.0260   -4.5610 hc        1 MOL      0.108761
    126 N11        -0.8720    3.9940   -0.5000 n         1 MOL     -0.471455
    127 C39        -1.8560    2.9630   -0.0760 c3        1 MOL      0.073880
    128 C40        -2.7080    2.6870   -1.3070 c         1 MOL      0.395044
    129 O19        -2.6820    3.3850   -2.3260 o         1 MOL     -0.559480
    130 C41        -2.6290    3.4350    1.1580 c3        1 MOL      0.363527
    131 C42        -3.6120    4.5930    0.8730 c3        1 MOL     -0.355083
    132 O20        -1.7570    3.6410    2.2750 oh        1 MOL     -0.581583
    133 H60        -0.8940    4.9400   -0.1450 hn        1 MOL      0.287732
    134 H61        -1.3610    2.0320    0.2010 h1        1 MOL      0.100979
    135 H62        -3.1640    2.5880    1.5720 h1        1 MOL     -0.019331
    136 H63        -2.3110    3.4540    3.0330 ho        1 MOL      0.338364
    137 H64        -4.2070    4.9590    1.7150 hc        1 MOL      0.087266
    138 H65        -3.0570    5.4650    0.5240 hc        1 MOL      0.087266
    139 H66        -4.2920    4.2710    0.0940 hc        1 MOL      0.087266
    140 N12        -3.5250    1.6650   -1.3390 n         1 MOL     -0.038917
    141 C43        -4.4790    1.2940   -2.4500 c3        1 MOL     -0.088603
    142 C44        -4.5760   -0.2880   -2.5550 c         1 MOL      0.527713
    143 O21        -4.9220   -0.8700   -3.5940 o         1 MOL     -0.632062
    144 C45        -5.8940    1.8300   -2.2030 c3        1 MOL     -0.257101
    145 C46        -5.9890    3.2840   -2.6100 c3        1 MOL      0.192846
    146 C47        -7.3990    3.8760   -2.2910 c3        1 MOL     -0.051320
    147 C48        -7.3710    5.3160   -2.8640 c3        1 MOL      0.022086
    148 N13        -8.6120    6.1160   -2.5440 n4        1 MOL     -0.311988
    149 H67        -3.5430    1.0500   -0.5330 hn        1 MOL     -0.042873
    150 H68        -4.1690    1.5880   -3.4490 h1        1 MOL      0.132347
    151 H69        -6.1170    1.7650   -1.1420 hc        1 MOL      0.098182
    152 H70        -6.6080    1.2060   -2.7300 hc        1 MOL      0.098182
    153 H71        -5.7710    3.4590   -3.6640 hc        1 MOL     -0.023690
    154 H72        -5.2470    3.8380   -2.0230 hc        1 MOL     -0.023690
    155 H73        -7.5760    3.8420   -1.2100 hc        1 MOL      0.043698
    156 H74        -8.1040    3.2410   -2.8140 hc        1 MOL      0.043698
    157 H75        -7.3750    5.2090   -3.9480 hx        1 MOL      0.076868
    158 H76        -6.4850    5.8300   -2.5020 hx        1 MOL      0.076868
    159 H77        -8.4880    7.0870   -2.7790 hn        1 MOL      0.310724
    160 H78        -9.4230    5.6710   -2.9590 hn        1 MOL      0.310724
    161 H79        -8.8340    6.0410   -1.5590 hn        1 MOL      0.310724
    162 N14        -4.0760   -1.0150   -1.6020 n         1 MOL     -0.041145
    163 C49        -4.0560   -2.5380   -1.6330 c3        1 MOL     -0.258508
    164 C50        -5.5340   -3.0170   -1.5930 c         1 MOL      0.458861
    165 O22        -6.2610   -2.5520   -0.6790 o         1 MOL     -0.516041
    166 C51        -3.3050   -2.9850   -0.3730 c3        1 MOL      0.320818
    167 C52        -3.0020   -4.4950   -0.1350 c3        1 MOL     -0.624447
    168 C53        -2.4130   -5.2740   -1.2980 c         1 MOL      0.793836
    169 O23        -3.1050   -5.7060   -2.2450 o         1 MOL     -0.718028
    170 O24        -1.1840   -5.3330   -1.3910 o         1 MOL     -0.718028
    171 H80        -3.8030   -0.5090   -0.7750 hn        1 MOL     -0.009458
    172 H81        -3.5050   -2.9060   -2.5010 h1        1 MOL      0.172587
    173 H82        -3.9480   -2.7520    0.4730 hc        1 MOL      0.063926
    174 H83        -2.3990   -2.3770   -0.4210 hc        1 MOL      0.063926
    175 H84        -3.9560   -4.9260    0.2050 hc        1 MOL      0.143685
    176 H85        -2.2180   -4.5950    0.6140 hc        1 MOL      0.143685
    177 N15        -5.8900   -3.8780   -2.5740 n         1 MOL     -0.178068
    178 C54        -7.1740   -4.5390   -2.7780 c3        1 MOL     -0.268914
    179 H86        -7.0270   -5.4400   -3.3730 h1        1 MOL      0.110658
    180 H87        -7.6030   -4.8070   -1.8130 h1        1 MOL      0.110658
    181 H88        -7.8510   -3.8640   -3.3040 h1        1 MOL      0.110658
    182 H89        -5.1290   -4.0640   -3.2100 hn        1 MOL      0.262806
    183 Ca1         1.2100   -5.1890   -2.1030 Ca        1 MOL      1.746085
    184 O25        -0.3120   -5.5120   -4.3570 oh        1 MOL     -0.907813
    185 H90         0.3700   -5.7740   -4.9720 ho        1 MOL      0.445025
    186 H91        -1.0280   -5.1990   -4.9140 ho        1 MOL      0.445025
    187 O26         0.8400   -7.7820   -2.0980 oh        1 MOL     -0.907813
    188 H92        -0.0720   -8.0440   -2.1570 ho        1 MOL      0.445025
    189 H93         1.3330   -8.5050   -2.4920 ho        1 MOL      0.445025
    190 O27         1.3080   -3.2390   -4.0270 oh        1 MOL     -0.907813
    191 H94         1.2810   -2.6340   -3.2850 ho        1 MOL      0.445025
    192 H95         0.4570   -3.1210   -4.4580 ho        1 MOL      0.445025
    193 O28         2.6160   -5.7940   -4.3100 oh        1 MOL     -0.907813
    194 H96         3.4160   -5.2900   -4.4660 ho        1 MOL      0.445025
    195 H97         2.6390   -6.4960   -4.9600 ho        1 MOL      0.445025
    196 O29         3.4570   -3.7020   -1.7670 oh        1 MOL     -0.907813
    197 H98         4.0490   -4.3170   -1.3410 ho        1 MOL      0.445025
    198 H99         3.9260   -3.4400   -2.5660 ho        1 MOL      0.445025
@<TRIPOS>BOND
     1    1    2 1   
     2    1    4 1   
     3    1    5 1   
     4    1    6 1   
     5    2    3 2   
     6    2    7 1   
     7    7    8 1   
     8    7   15 1   
     9    8    9 1   
    10    8   11 1   
    11    8   16 1   
    12    9   10 2   
    13    9   19 1   
    14   11   12 1   
    15   11   17 1   
    16   11   18 1   
    17   12   13 1   
    18   12   14 1   
    19   19   20 1   
    20   19   28 1   
    21   20   21 1   
    22   20   23 1   
    23   20   29 1   
    24   21   22 2   
    25   21   41 1   
    26   23   24 1   
    27   23   30 1   
    28   23   31 1   
    29   24   25 1   
    30   24   32 1   
    31   24   33 1   
    32   25   26 1   
    33   25   34 1   
    34   25   35 1   
    35   26   27 1   
    36   26   36 1   
    37   26   37 1   
    38   27   38 1   
    39   27   39 1   
    40   27   40 1   
    41   41   42 1   
    42   41   49 1   
    43   42   43 1   
    44   42   45 1   
    45   42   50 1   
    46   43   44 2   
    47   43   53 1   
    48   45   46 1   
    49   45   51 1   
    50   45   52 1   
    51   46   47 1   
    52   46   48 1   
    53   53   54 1   
    54   53   57 1   
    55   54   55 1   
    56   54   58 1   
    57   54   59 1   
    58   55   56 2   
    59   55   60 1   
    60   60   61 1   
    61   60   68 1   
    62   61   62 1   
    63   61   64 1   
    64   61   69 1   
    65   62   63 2   
    66   62   72 1   
    67   64   65 1   
    68   64   70 1   
    69   64   71 1   
    70   65   66 1   
    71   65   67 1   
    72   72   73 1   
    73   72   76 1   
    74   73   74 1   
    75   73   77 1   
    76   73   78 1   
    77   74   75 2   
    78   74   79 1   
    79   79   80 1   
    80   79   86 1   
    81   80   81 1   
    82   80   83 1   
    83   80   87 1   
    84   81   82 2   
    85   81   93 1   
    86   83   84 1   
    87   83   85 1   
    88   83   88 1   
    89   84   90 1   
    90   84   91 1   
    91   84   92 1   
    92   85   89 1   
    93   93   94 1   
    94   93  101 1   
    95   94   95 1   
    96   94   97 1   
    97   94  102 1   
    98   95   96 2   
    99   95  112 1   
   100   97   98 1   
   101   97   99 1   
   102   97  103 1   
   103   98  100 1   
   104   98  104 1   
   105   98  105 1   
   106   99  106 1   
   107   99  107 1   
   108   99  108 1   
   109  100  109 1   
   110  100  110 1   
   111  100  111 1   
   112  112  113 1   
   113  112  119 1   
   114  113  114 1   
   115  113  116 1   
   116  113  120 1   
   117  114  115 2   
   118  114  126 1   
   119  116  117 1   
   120  116  118 1   
   121  116  121 1   
   122  117  123 1   
   123  117  124 1   
   124  117  125 1   
   125  118  122 1   
   126  126  127 1   
   127  126  133 1   
   128  127  128 1   
   129  127  130 1   
   130  127  134 1   
   131  128  129 2   
   132  128  140 1   
   133  130  131 1   
   134  130  132 1   
   135  130  135 1   
   136  131  137 1   
   137  131  138 1   
   138  131  139 1   
   139  132  136 1   
   140  140  141 1   
   141  140  149 1   
   142  141  142 1   
   143  141  144 1   
   144  141  150 1   
   145  142  143 2   
   146  142  162 1   
   147  144  145 1   
   148  144  151 1   
   149  144  152 1   
   150  145  146 1   
   151  145  153 1   
   152  145  154 1   
   153  146  147 1   
   154  146  155 1   
   155  146  156 1   
   156  147  148 1   
   157  147  157 1   
   158  147  158 1   
   159  148  159 1   
   160  148  160 1   
   161  148  161 1   
   162  162  163 1   
   163  162  171 1   
   164  163  164 1   
   165  163  166 1   
   166  163  172 1   
   167  164  165 2   
   168  164  177 1   
   169  166  167 1   
   170  166  173 1   
   171  166  174 1   
   172  167  168 1   
   173  167  175 1   
   174  167  176 1   
   175  168  169 1   
   176  168  170 1   
   177  177  178 1   
   178  177  182 1   
   179  178  179 1   
   180  178  180 1   
   181  178  181 1   
   182  184  185 1   
   183  184  186 1   
   184  187  188 1   
   185  187  189 1   
   186  190  191 1   
   187  190  192 1   
   188  193  194 1   
   189  193  195 1   
   190  196  197 1   
   191  196  198 1   
@<TRIPOS>SUBSTRUCTURE
     1 MOL         1 TEMP              0 ****  ****    0 ROOT
