@<TRIPOS>MOLECULE
MOL
  192   187     1     0     0
SMALL
resp


@<TRIPOS>ATOM
      1 C1          4.2560    4.8290   -2.9150 c3        1 MOL     -0.276119
      2 C2          4.9570    3.6250   -2.1030 c         1 MOL      0.730750
      3 O1          4.5470    3.2390   -1.0050 o         1 MOL     -0.659663
      4 H1          3.1990    4.8790   -2.6500 hc        1 MOL      0.069786
      5 H2          4.7390    5.7710   -2.6570 hc        1 MOL      0.069786
      6 H3          4.3530    4.6520   -3.9860 hc        1 MOL      0.069786
      7 N1          6.0320    3.0980   -2.5330 n         1 MOL     -0.756575
      8 C3          6.9170    1.9560   -2.0640 c3        1 MOL      0.197701
      9 C4          6.0580    0.7070   -1.7100 c         1 MOL      0.320144
     10 O2          5.8630    0.3770   -0.5370 o         1 MOL     -0.325316
     11 C5          7.8870    2.4540   -1.0440 c3        1 MOL     -0.051087
     12 C6          7.4080    3.4140    0.0130 c         1 MOL      0.729264
     13 O3          6.5890    3.0660    0.8600 o         1 MOL     -0.701666
     14 O4          8.0580    4.3690    0.3880 o         1 MOL     -0.701666
     15 H4          6.5300    3.6980   -3.1770 hn        1 MOL      0.338366
     16 H5          7.4970    1.7440   -2.9590 h1        1 MOL      0.040621
     17 H6          8.6630    3.0270   -1.5470 hc        1 MOL     -0.009325
     18 H7          8.2900    1.5620   -0.5540 hc        1 MOL     -0.009325
     19 N2          5.5470    0.0970   -2.8150 n         1 MOL     -0.394029
     20 C7          4.8690   -1.1850   -2.9750 c3        1 MOL     -0.080209
     21 C8          5.6720   -2.4220   -2.5090 c         1 MOL      0.455484
     22 O5          5.5750   -3.4980   -3.0690 o         1 MOL     -0.551129
     23 C9          3.3970   -1.0760   -2.3450 c3        1 MOL      0.491166
     24 C10         2.4350   -2.2760   -2.4630 c3        1 MOL     -0.216134
     25 C11         2.6130    0.1590   -2.8710 c3        1 MOL     -0.076726
     26 C12         2.0430   -2.4490   -3.9370 c3        1 MOL     -0.506474
     27 H8          5.7320    0.6160   -3.6580 hn        1 MOL      0.288719
     28 H9          4.6940   -1.3130   -4.0460 h1        1 MOL      0.062868
     29 H10         3.5450   -0.8660   -1.2790 hc        1 MOL     -0.215242
     30 H11         1.5570   -2.2400   -1.8180 hc        1 MOL      0.123457
     31 H12         2.9980   -3.1440   -2.1130 hc        1 MOL      0.123457
     32 H13         1.6170    0.1600   -2.4190 hc        1 MOL      0.006873
     33 H14         3.1300    1.1180   -2.8070 hc        1 MOL      0.006873
     34 H15         2.6550    0.1190   -3.9550 hc        1 MOL      0.006873
     35 H16         1.4350   -1.5660   -4.1690 hc        1 MOL      0.123869
     36 H17         2.8960   -2.4810   -4.6150 hc        1 MOL      0.123869
     37 H18         1.4120   -3.3350   -4.0010 hc        1 MOL      0.123869
     38 N3          6.4190   -2.2090   -1.4150 n         1 MOL     -0.223380
     39 C13         7.1480   -3.2360   -0.5930 c3        1 MOL      0.078074
     40 C14         6.4770   -4.5740   -0.3700 c         1 MOL      0.600957
     41 O6          7.1670   -5.5340   -0.5010 o         1 MOL     -0.595152
     42 C15         7.6090   -2.6470    0.7020 c3        1 MOL     -0.296790
     43 C16         8.4100   -1.3360    0.6530 c         1 MOL      0.771652
     44 O7          8.3260   -0.5400    1.6150 o         1 MOL     -0.710874
     45 O8          9.2680   -1.2150   -0.2710 o         1 MOL     -0.710874
     46 H19         6.3760   -1.2710   -1.0430 hn        1 MOL      0.091311
     47 H20         8.0540   -3.4470   -1.1740 h1        1 MOL      0.034477
     48 H21         8.3400   -3.2170    1.2740 hc        1 MOL      0.103982
     49 H22         6.6990   -2.4250    1.2410 hc        1 MOL      0.103982
     50 N4          5.2040   -4.7060   -0.0430 n         1 MOL     -0.508354
     51 C17         4.3400   -3.6700    0.5220 c3        1 MOL      0.006550
     52 C18         4.5870   -3.6210    2.0570 c         1 MOL      0.505658
     53 O9          5.5790   -4.0860    2.5940 o         1 MOL     -0.529729
     54 H23         4.8600   -5.6540   -0.0510 hn        1 MOL      0.294087
     55 H24         3.3120   -3.9990    0.3350 h1        1 MOL      0.068295
     56 H25         4.4500   -2.7100    0.0200 h1        1 MOL      0.068295
     57 N5          3.6290   -3.1380    2.9030 n         1 MOL     -0.421798
     58 C19         2.3260   -2.5700    2.5780 c3        1 MOL     -0.008474
     59 C20         2.3780   -1.3810    1.6280 c         1 MOL      0.138629
     60 O10         3.3690   -0.6850    1.4950 o         1 MOL     -0.422247
     61 C21         1.7490   -2.0500    3.9070 c3        1 MOL     -0.208130
     62 C22         2.6950   -1.3140    4.8340 c         1 MOL      0.816320
     63 O11         2.2960   -0.1760    5.1210 o         1 MOL     -0.709468
     64 O12         3.5980   -1.9170    5.5290 o         1 MOL     -0.709468
     65 H26         3.8820   -3.2100    3.8770 hn        1 MOL      0.280142
     66 H27         1.6780   -3.3650    2.2140 h1        1 MOL      0.086247
     67 H28         1.1540   -2.7920    4.4550 hc        1 MOL      0.051578
     68 H29         0.9360   -1.3360    3.7420 hc        1 MOL      0.051578
     69 N6          1.3640   -1.0740    0.8910 n         1 MOL      0.006491
     70 C23        -0.0240   -1.5050    1.0070 c3        1 MOL     -0.013040
     71 C24        -0.3710   -2.9080    0.4550 c         1 MOL      0.508398
     72 O13         0.5580   -3.6620    0.0290 o         1 MOL     -0.530228
     73 H30         1.5300   -0.3490    0.1970 hn        1 MOL      0.082751
     74 H31        -0.5320   -0.7670    0.3900 h1        1 MOL      0.039189
     75 H32        -0.3190   -1.3620    2.0490 h1        1 MOL      0.039189
     76 N7         -1.6340   -3.2120    0.3190 n         1 MOL     -0.446165
     77 C25        -2.1700   -4.4970   -0.1060 c3        1 MOL     -0.034576
     78 C26        -3.0360   -4.3850   -1.4170 c         1 MOL      0.489491
     79 O14        -3.3920   -5.3330   -2.1460 o         1 MOL     -0.522109
     80 C27        -2.7650   -5.3800    1.0100 c3        1 MOL     -0.035052
     81 C28        -4.1540   -4.9420    1.4380 c3        1 MOL     -0.181876
     82 C29        -4.3750   -3.4760    1.8730 c         1 MOL      0.552182
     83 N8         -3.9370   -3.1010    3.0490 n         1 MOL     -0.761727
     84 O15        -4.7620   -2.5740    1.1740 o         1 MOL     -0.512720
     85 H33        -2.2750   -2.4700    0.5820 hn        1 MOL      0.264078
     86 H34        -1.3010   -5.0170   -0.5080 h1        1 MOL      0.132015
     87 H35        -2.1680   -5.3840    1.9230 hc        1 MOL      0.048918
     88 H36        -2.8120   -6.4040    0.6520 hc        1 MOL      0.048918
     89 H37        -4.5320   -5.6170    2.2130 hc        1 MOL      0.076288
     90 H38        -4.6990   -5.1110    0.5070 hc        1 MOL      0.076288
     91 H39        -3.3950   -3.6870    3.6590 hn        1 MOL      0.389456
     92 H40        -4.1130   -2.1100    3.1440 hn        1 MOL      0.389456
     93 N9         -3.1420   -3.1200   -1.8730 n         1 MOL     -0.273974
     94 C30        -3.7250   -2.7620   -3.1390 c3        1 MOL     -0.021370
     95 C31        -5.0730   -2.0890   -3.0450 c         1 MOL      0.448688
     96 O16        -5.8340   -2.0700   -4.0450 o         1 MOL     -0.542902
     97 C32        -2.7850   -1.8860   -3.9930 c3        1 MOL     -0.064587
     98 C33        -1.4800   -2.6410   -4.4050 c3        1 MOL     -0.038322
     99 C34        -2.4410   -0.6510   -3.2530 c3        1 MOL     -0.038322
    100 H41        -2.9000   -2.3250   -1.2830 hn        1 MOL      0.292364
    101 H42        -3.9860   -3.6640   -3.6930 h1        1 MOL      0.127981
    102 H43        -3.2140   -1.5780   -4.9430 hc        1 MOL      0.071109
    103 H44        -0.9020   -3.0050   -3.5520 hc        1 MOL      0.008131
    104 H45        -1.7140   -3.5930   -4.8960 hc        1 MOL      0.008131
    105 H46        -0.8440   -2.1040   -5.1020 hc        1 MOL      0.008131
    106 H47        -3.3510   -0.1420   -2.9190 hc        1 MOL      0.008131
    107 H48        -2.0220   -0.7530   -2.2500 hc        1 MOL      0.008131
    108 H49        -1.8380   -0.0140   -3.8840 hc        1 MOL      0.008131
    109 N10        -5.4690   -1.6040   -1.8720 n         1 MOL     -0.150620
    110 C35        -6.8570   -1.2030   -1.5750 c3        1 MOL     -0.162505
    111 C36        -7.1440    0.2880   -1.1850 c         1 MOL      0.603308
    112 O17        -8.2140    0.8660   -1.4290 o         1 MOL     -0.557861
    113 C37        -7.5030   -2.1130   -0.5140 c3        1 MOL     -0.157343
    114 C38        -7.4250   -3.5550   -0.8610 c         1 MOL      0.548086
    115 N11        -7.2580   -4.3090    0.2000 n         1 MOL     -0.770814
    116 O18        -7.3680   -3.9980   -2.0080 o         1 MOL     -0.508021
    117 H50        -4.9240   -1.7890   -1.0310 hn        1 MOL      0.137128
    118 H51        -7.4920   -1.3900   -2.4470 h1        1 MOL      0.126342
    119 H52        -8.5600   -1.8990   -0.3640 hc        1 MOL      0.104226
    120 H53        -6.9560   -1.8970    0.4130 hc        1 MOL      0.104226
    121 H54        -7.3630   -3.9360    1.1330 hn        1 MOL      0.345002
    122 H55        -7.3020   -5.2930   -0.0470 hn        1 MOL      0.345002
    123 N12        -6.0700    0.9750   -0.6980 n         1 MOL     -0.527533
    124 C39        -6.1080    2.2980   -0.0460 c3        1 MOL      0.268478
    125 C40        -4.7540    2.9950   -0.0560 c         1 MOL      0.343186
    126 O19        -3.8180    2.2640   -0.4670 o         1 MOL     -0.378506
    127 C41        -6.5650    2.0160    1.4090 c3        1 MOL     -0.193407
    128 C42        -7.8710    1.1690    1.6330 ca        1 MOL     -0.047639
    129 C43        -9.0400    1.7480    1.3040 ca        1 MOL     -0.001443
    130 C44        -7.7850   -0.0600    2.2440 ca        1 MOL     -0.001443
    131 C45       -10.2810    1.0920    1.4740 ca        1 MOL     -0.377315
    132 C46        -8.9870   -0.8510    2.3860 ca        1 MOL     -0.377315
    133 C47       -10.2030   -0.2660    1.8320 ca        1 MOL      0.430406
    134 O20       -11.3530   -1.0430    1.8620 oh        1 MOL     -0.550354
    135 H56        -5.1930    0.5160   -0.4960 hn        1 MOL      0.267922
    136 H57        -6.7680    3.0230   -0.5280 h1        1 MOL      0.025911
    137 H58        -6.8010    2.9000    1.9970 hc        1 MOL      0.095046
    138 H59        -5.8150    1.4460    1.9590 hc        1 MOL      0.095046
    139 H60        -9.0930    2.7890    1.0120 ha        1 MOL      0.091973
    140 H61        -6.8060   -0.4450    2.5220 ha        1 MOL      0.091973
    141 H62       -11.1780    1.5350    1.0680 ha        1 MOL      0.163449
    142 H63        -9.0390   -1.7610    2.9570 ha        1 MOL      0.163449
    143 H64       -11.9360   -0.7790    1.1340 ho        1 MOL      0.370693
    144 N13        -4.6630    4.2130    0.4900 n         1 MOL     -0.495566
    145 C48        -3.4680    4.9590    0.9080 c3        1 MOL      0.082906
    146 C49        -2.3560    5.2200   -0.1510 c         1 MOL      0.219403
    147 O21        -1.6360    6.2130   -0.1590 o         1 MOL     -0.485254
    148 C50        -2.9320    4.3170    2.2010 c3        1 MOL     -0.003832
    149 C51        -4.0850    4.1830    3.2360 c3        1 MOL     -0.075314
    150 C52        -3.4870    3.4330    4.4210 c         1 MOL      0.614533
    151 O22        -2.9480    4.1650    5.3310 o         1 MOL     -0.698670
    152 O23        -3.5930    2.1760    4.3770 o         1 MOL     -0.698670
    153 H65        -5.5290    4.6410    0.8070 hn        1 MOL      0.307547
    154 H66        -3.8160    5.9460    1.2270 h1        1 MOL      0.072599
    155 H67        -2.1870    4.9250    2.7180 hc        1 MOL      0.074885
    156 H68        -2.5370    3.3290    1.9540 hc        1 MOL      0.074885
    157 H69        -5.0170    3.7590    2.8530 hc        1 MOL     -0.032135
    158 H70        -4.3180    5.1970    3.5490 hc        1 MOL     -0.032135
    159 N14        -2.1000    4.2280   -1.0370 n         1 MOL      0.043379
    160 C53        -0.9720    4.1180   -1.9590 c3        1 MOL     -0.182933
    161 C54        -1.2960    4.6910   -3.3440 c         1 MOL      0.631570
    162 O24        -0.4790    5.2710   -4.0240 o         1 MOL     -0.568402
    163 C55        -0.6780    2.6450   -2.1810 c3        1 MOL      0.034073
    164 C56        -0.2090    1.9490   -0.9600 c3        1 MOL      0.325945
    165 C57         1.0710    2.4810   -0.2760 c         1 MOL      0.567266
    166 O25         2.0840    1.7940   -0.0920 o         1 MOL     -0.623717
    167 O26         1.0590    3.5810    0.3000 o         1 MOL     -0.623717
    168 H71        -2.6520    3.3930   -0.8870 hn        1 MOL      0.055484
    169 H72        -0.1080    4.6640   -1.5790 h1        1 MOL      0.125890
    170 H73         0.0610    2.5150   -2.9730 hc        1 MOL     -0.032829
    171 H74        -1.5470    2.1230   -2.5810 hc        1 MOL     -0.032829
    172 H75        -0.0110    0.9470   -1.3260 hc        1 MOL     -0.134313
    173 H76        -0.9640    2.0220   -0.1820 hc        1 MOL     -0.134313
    174 N15        -2.5450    4.5400   -3.7150 n         1 MOL     -0.386436
    175 C58        -3.3490    5.4870   -4.5780 c3        1 MOL     -0.335533
    176 H77        -4.4070    5.3900   -4.3340 h1        1 MOL      0.135060
    177 H78        -3.0260    6.5110   -4.3940 h1        1 MOL      0.135060
    178 H79        -3.1960    5.2410   -5.6290 h1        1 MOL      0.135060
    179 H80        -3.0950    4.1460   -2.9590 hn        1 MOL      0.246887
    180 Ca1         4.4750    1.7780    1.3140 Ca        1 MOL      1.694070
    181 O27         5.9860    0.2880    2.7860 oh        1 MOL     -0.797326
    182 H81         6.1280   -0.2780    3.5380 ho        1 MOL      0.380703
    183 H82         6.8120    0.2900    2.3220 ho        1 MOL      0.380703
    184 O28         2.7800    1.6840    3.3760 oh        1 MOL     -0.797326
    185 H83         1.9210    2.1010    3.3610 ho        1 MOL      0.380703
    186 H84         2.7570    1.1140    4.1490 ho        1 MOL      0.380703
    187 O29         3.5250    4.2940    1.5790 oh        1 MOL     -0.797326
    188 H85         2.7240    4.3670    1.0590 ho        1 MOL      0.380703
    189 H86         4.1350    4.9150    1.1660 ho        1 MOL      0.380703
    190 O30         5.3810    2.9910    4.0410 oh        1 MOL     -0.797326
    191 H87         4.8000    3.7070    4.2990 ho        1 MOL      0.380703
    192 H88         4.8840    2.1940    4.2530 ho        1 MOL      0.380703
@<TRIPOS>BOND
     1    1    2 1   
     2    1    4 1   
     3    1    5 1   
     4    1    6 1   
     5    2    3 2   
     6    2    7 1   
     7    7    8 1   
     8    7   15 1   
     9    8    9 1   
    10    8   11 1   
    11    8   16 1   
    12    9   10 2   
    13    9   19 1   
    14   11   12 1   
    15   11   17 1   
    16   11   18 1   
    17   12   13 1   
    18   12   14 1   
    19   19   20 1   
    20   19   27 1   
    21   20   21 1   
    22   20   23 1   
    23   20   28 1   
    24   21   22 2   
    25   21   38 1   
    26   23   24 1   
    27   23   25 1   
    28   23   29 1   
    29   24   26 1   
    30   24   30 1   
    31   24   31 1   
    32   25   32 1   
    33   25   33 1   
    34   25   34 1   
    35   26   35 1   
    36   26   36 1   
    37   26   37 1   
    38   38   39 1   
    39   38   46 1   
    40   39   40 1   
    41   39   42 1   
    42   39   47 1   
    43   40   41 2   
    44   40   50 1   
    45   42   43 1   
    46   42   48 1   
    47   42   49 1   
    48   43   44 1   
    49   43   45 1   
    50   50   51 1   
    51   50   54 1   
    52   51   52 1   
    53   51   55 1   
    54   51   56 1   
    55   52   53 2   
    56   52   57 1   
    57   57   58 1   
    58   57   65 1   
    59   58   59 1   
    60   58   61 1   
    61   58   66 1   
    62   59   60 2   
    63   59   69 1   
    64   61   62 1   
    65   61   67 1   
    66   61   68 1   
    67   62   63 1   
    68   62   64 1   
    69   69   70 1   
    70   69   73 1   
    71   70   71 1   
    72   70   74 1   
    73   70   75 1   
    74   71   72 2   
    75   71   76 1   
    76   76   77 1   
    77   76   85 1   
    78   77   78 1   
    79   77   80 1   
    80   77   86 1   
    81   78   79 2   
    82   78   93 1   
    83   80   81 1   
    84   80   87 1   
    85   80   88 1   
    86   81   82 1   
    87   81   89 1   
    88   81   90 1   
    89   82   83 1   
    90   82   84 2   
    91   83   91 1   
    92   83   92 1   
    93   93   94 1   
    94   93  100 1   
    95   94   95 1   
    96   94   97 1   
    97   94  101 1   
    98   95   96 2   
    99   95  109 1   
   100   97   98 1   
   101   97   99 1   
   102   97  102 1   
   103   98  103 1   
   104   98  104 1   
   105   98  105 1   
   106   99  106 1   
   107   99  107 1   
   108   99  108 1   
   109  109  110 1   
   110  109  117 1   
   111  110  111 1   
   112  110  113 1   
   113  110  118 1   
   114  111  112 2   
   115  111  123 1   
   116  113  114 1   
   117  113  119 1   
   118  113  120 1   
   119  114  115 1   
   120  114  116 2   
   121  115  121 1   
   122  115  122 1   
   123  123  124 1   
   124  123  135 1   
   125  124  125 1   
   126  124  127 1   
   127  124  136 1   
   128  125  126 2   
   129  125  144 1   
   130  127  128 1   
   131  127  137 1   
   132  127  138 1   
   133  128  129 ar  
   134  128  130 ar  
   135  129  131 ar  
   136  129  139 1   
   137  130  132 ar  
   138  130  140 1   
   139  131  133 ar  
   140  131  141 1   
   141  132  133 ar  
   142  132  142 1   
   143  133  134 1   
   144  134  143 1   
   145  144  145 1   
   146  144  153 1   
   147  145  146 1   
   148  145  148 1   
   149  145  154 1   
   150  146  147 2   
   151  146  159 1   
   152  148  149 1   
   153  148  155 1   
   154  148  156 1   
   155  149  150 1   
   156  149  157 1   
   157  149  158 1   
   158  150  151 1   
   159  150  152 1   
   160  159  160 1   
   161  159  168 1   
   162  160  161 1   
   163  160  163 1   
   164  160  169 1   
   165  161  162 2   
   166  161  174 1   
   167  163  164 1   
   168  163  170 1   
   169  163  171 1   
   170  164  165 1   
   171  164  172 1   
   172  164  173 1   
   173  165  166 1   
   174  165  167 1   
   175  174  175 1   
   176  174  179 1   
   177  175  176 1   
   178  175  177 1   
   179  175  178 1   
   180  181  182 1   
   181  181  183 1   
   182  184  185 1   
   183  184  186 1   
   184  187  188 1   
   185  187  189 1   
   186  190  191 1   
   187  190  192 1   
@<TRIPOS>SUBSTRUCTURE
     1 MOL         1 TEMP              0 ****  ****    0 ROOT
