@<TRIPOS>MOLECULE
MOL
  201   193     1     0     0
SMALL
resp


@<TRIPOS>ATOM
      1 C1          1.6820    2.6970    1.5990 c3        1 MOL     -0.188718
      2 C2          0.5690    3.2990    0.8000 c         1 MOL      0.652171
      3 O1         -0.3950    2.5890    0.5300 o         1 MOL     -0.499233
      4 H1          2.5360    2.5110    0.9480 hc        1 MOL      0.019257
      5 H2          1.9730    3.3850    2.3920 hc        1 MOL      0.019257
      6 H3          1.3480    1.7570    2.0370 hc        1 MOL      0.019257
      7 N1          0.6440    4.6100    0.4090 n         1 MOL     -0.754597
      8 C3         -0.4170    5.2190   -0.4370 c3        1 MOL      0.403727
      9 C4         -1.7800    4.8580    0.0760 c         1 MOL      0.457378
     10 O2         -2.6060    4.2940   -0.5980 o         1 MOL     -0.424573
     11 C5         -0.1910    4.9840   -1.9160 c3        1 MOL     -0.301897
     12 C6         -0.9460    5.9060   -2.8650 c         1 MOL      0.683936
     13 O3         -1.5800    6.9280   -2.5250 o         1 MOL     -0.650552
     14 O4         -0.8270    5.6340   -4.0810 o         1 MOL     -0.650552
     15 H4          1.5040    5.1000    0.5940 hn        1 MOL      0.343167
     16 H5         -0.3790    6.3060   -0.3940 h1        1 MOL     -0.047962
     17 H6         -0.4340    3.9510   -2.1530 hc        1 MOL      0.083262
     18 H7          0.8540    5.0780   -2.2270 hc        1 MOL      0.083262
     19 N2         -1.9820    5.3050    1.3380 n         1 MOL     -0.367902
     20 C7         -3.2900    5.0670    2.0400 c3        1 MOL     -0.366418
     21 C8         -4.3300    6.0460    1.5610 c         1 MOL      0.757330
     22 O5         -4.0470    7.2210    1.6050 o         1 MOL     -0.621005
     23 C9         -3.1280    4.9010    3.5290 c3        1 MOL      0.284445
     24 C10        -2.9150    6.1760    4.3530 c3        1 MOL      0.055539
     25 C11        -2.0910    3.8410    3.9240 c3        1 MOL     -0.201346
     26 C12        -2.7190    6.0550    5.8850 c3        1 MOL     -0.242407
     27 H8         -1.3610    5.9650    1.7870 hn        1 MOL      0.260504
     28 H9         -3.5460    4.0720    1.6740 h1        1 MOL      0.204893
     29 H10        -4.1240    4.6040    3.8570 hc        1 MOL     -0.003735
     30 H11        -3.8090    6.7780    4.2040 hc        1 MOL     -0.004163
     31 H12        -2.0280    6.6340    3.9300 hc        1 MOL     -0.004163
     32 H13        -2.1790    3.5970    4.9810 hc        1 MOL      0.043900
     33 H14        -2.1110    2.9570    3.2850 hc        1 MOL      0.043900
     34 H15        -1.1410    4.3550    3.7560 hc        1 MOL      0.043900
     35 H16        -3.1380    6.9100    6.4110 hc        1 MOL      0.043028
     36 H17        -3.3450    5.2280    6.2040 hc        1 MOL      0.043028
     37 H18        -1.6740    5.9470    6.1770 hc        1 MOL      0.043028
     38 N3         -5.5760    5.7490    1.0800 n         1 MOL     -0.686869
     39 C13        -6.2670    4.4490    1.1760 c3        1 MOL      0.456076
     40 C14        -6.7930    4.0610   -0.1670 c         1 MOL      0.405399
     41 O6         -8.0070    3.8390   -0.3990 o         1 MOL     -0.525906
     42 C15        -7.3420    4.5050    2.2440 c3        1 MOL     -0.508149
     43 C16        -8.0760    3.1450    2.4540 c         1 MOL      0.745023
     44 O7         -9.2190    3.0530    2.9220 o         1 MOL     -0.658979
     45 O8         -7.5270    2.0970    2.0860 o         1 MOL     -0.658979
     46 H19        -6.0850    6.5500    0.7580 hn        1 MOL      0.331508
     47 H20        -5.5640    3.6340    1.3200 h1        1 MOL     -0.081646
     48 H21        -8.1150    5.2440    2.0430 hc        1 MOL      0.103461
     49 H22        -6.9140    4.7120    3.2220 hc        1 MOL      0.103461
     50 N4         -5.9340    4.1480   -1.1530 n         1 MOL     -0.045517
     51 C17        -6.3060    4.3390   -2.5300 c3        1 MOL     -0.408126
     52 C18        -6.5900    2.9920   -3.3050 c         1 MOL      0.847402
     53 O9         -6.8510    3.1460   -4.4750 o         1 MOL     -0.627886
     54 H23        -4.9670    4.3800   -0.9550 hn        1 MOL      0.174796
     55 H24        -5.4640    4.8060   -3.0330 h1        1 MOL      0.138190
     56 H25        -7.1690    5.0090   -2.5830 h1        1 MOL      0.138190
     57 N5         -6.5230    1.8460   -2.6530 n         1 MOL     -0.632643
     58 C19        -6.5770    0.5550   -3.3340 c3        1 MOL      0.177347
     59 C20        -7.4300   -0.4680   -2.5470 c         1 MOL      0.518231
     60 O10        -8.1710   -1.2650   -3.1040 o         1 MOL     -0.593014
     61 C21        -5.2630    0.0510   -3.8180 c3        1 MOL     -0.253127
     62 C22        -4.3020   -0.0080   -2.5970 c         1 MOL      0.749429
     63 O11        -3.5260    0.9650   -2.4350 o         1 MOL     -0.655470
     64 O12        -4.3470   -0.9940   -1.8800 o         1 MOL     -0.655470
     65 H26        -6.1920    1.8980   -1.7050 hn        1 MOL      0.211379
     66 H27        -7.1590    0.7420   -4.2320 h1        1 MOL      0.045635
     67 H28        -4.8720    0.8040   -4.5000 hc        1 MOL      0.063538
     68 H29        -5.4450   -0.9820   -4.1220 hc        1 MOL      0.063538
     69 N6         -7.3140   -0.5500   -1.1940 n         1 MOL     -0.288114
     70 C23        -8.0680   -1.6790   -0.5240 c3        1 MOL     -0.288111
     71 C24        -7.3810   -3.0620   -0.5500 c         1 MOL      0.542349
     72 O13        -7.8860   -3.9580    0.0350 o         1 MOL     -0.623605
     73 H30        -6.7100    0.0570   -0.6430 hn        1 MOL      0.343490
     74 H31        -9.1060   -1.7770   -0.8310 h1        1 MOL      0.151957
     75 H32        -8.0130   -1.4210    0.5350 h1        1 MOL      0.151957
     76 N7         -6.2340   -3.1750   -1.1810 n         1 MOL      0.020986
     77 C25        -5.2950   -4.2950   -1.2760 c3        1 MOL      0.188322
     78 C26        -5.0270   -5.1980   -0.0710 c         1 MOL      0.384197
     79 O14        -4.8560   -6.4070   -0.2090 o         1 MOL     -0.528496
     80 C27        -5.6250   -5.1450   -2.5040 c3        1 MOL      0.209821
     81 C28        -6.1560   -4.3970   -3.7850 c3        1 MOL     -0.258423
     82 C29        -5.7900   -4.9900   -5.1350 c         1 MOL      0.672008
     83 N8         -6.3660   -4.5660   -6.1590 n         1 MOL     -0.744508
     84 O15        -4.8420   -5.8130   -5.2650 o         1 MOL     -0.605763
     85 H33        -5.8980   -2.3290   -1.6120 hn        1 MOL     -0.149898
     86 H34        -4.3330   -3.8180   -1.4930 h1        1 MOL      0.078011
     87 H35        -6.4240   -5.8560   -2.3070 hc        1 MOL     -0.061550
     88 H36        -4.6970   -5.6490   -2.7880 hc        1 MOL     -0.061550
     89 H37        -5.7730   -3.3820   -3.7800 hc        1 MOL      0.075233
     90 H38        -7.2360   -4.5430   -3.6720 hc        1 MOL      0.075233
     91 H39        -7.1170   -3.8890   -6.1660 hn        1 MOL      0.336137
     92 H40        -6.0380   -4.8660   -7.0650 hn        1 MOL      0.336137
     93 N9         -4.8860   -4.6260    1.1310 n         1 MOL     -0.295981
     94 C30        -4.6180   -5.2490    2.4290 c3        1 MOL     -0.061297
     95 C31        -3.2890   -4.8660    3.0110 c         1 MOL      0.619402
     96 O16        -2.8930   -5.4980    3.9500 o         1 MOL     -0.601662
     97 C32        -5.7520   -4.7720    3.4480 c3        1 MOL      0.442341
     98 C33        -6.0510   -3.2700    3.4100 c3        1 MOL     -0.585093
     99 C34        -7.0030   -5.5550    3.0450 c3        1 MOL     -0.585093
    100 H41        -4.8540   -3.6240    1.1740 hn        1 MOL      0.180797
    101 H42        -4.6820   -6.3350    2.4210 h1        1 MOL      0.093824
    102 H43        -5.4440   -5.0800    4.4480 hc        1 MOL     -0.075463
    103 H44        -6.7210   -3.0450    4.2370 hc        1 MOL      0.145073
    104 H45        -5.1290   -2.6950    3.3820 hc        1 MOL      0.145073
    105 H46        -6.5490   -3.1460    2.4490 hc        1 MOL      0.145073
    106 H47        -7.2420   -5.3600    1.9990 hc        1 MOL      0.145073
    107 H48        -6.7480   -6.5930    3.2290 hc        1 MOL      0.145073
    108 H49        -7.7430   -5.2240    3.7640 hc        1 MOL      0.145073
    109 N10        -2.6830   -3.7860    2.4720 n         1 MOL     -0.608914
    110 C35        -1.4420   -3.1210    2.9420 c3        1 MOL      0.524154
    111 C36        -0.6040   -2.7400    1.7030 c         1 MOL      0.508359
    112 O17        -1.1570   -2.6220    0.6430 o         1 MOL     -0.547161
    113 C37        -1.6930   -1.9740    3.8830 c3        1 MOL     -0.495195
    114 C38        -0.4420   -1.6250    4.7390 c         1 MOL      0.660040
    115 N11        -0.4180   -1.8120    6.0410 n         1 MOL     -0.791325
    116 O18         0.5900   -1.3360    4.1970 o         1 MOL     -0.534693
    117 H50        -3.2160   -3.2030    1.8460 hn        1 MOL      0.287294
    118 H51        -0.8750   -3.9360    3.3880 h1        1 MOL     -0.021021
    119 H52        -2.4730   -2.2530    4.5990 hc        1 MOL      0.138496
    120 H53        -1.9910   -1.1180    3.2790 hc        1 MOL      0.138496
    121 H54        -1.2680   -2.1630    6.4390 hn        1 MOL      0.364968
    122 H55         0.3540   -1.4460    6.5840 hn        1 MOL      0.364968
    123 N12         0.7190   -2.7890    1.7880 n         1 MOL     -0.615564
    124 C39         1.5710   -2.4890    0.6340 c3        1 MOL      0.198079
    125 C40         2.9470   -3.0370    0.9200 c         1 MOL      0.676798
    126 O19         3.5410   -2.6800    1.9480 o         1 MOL     -0.557783
    127 C41         1.5110   -1.0170    0.1530 c3        1 MOL     -0.077755
    128 C42         2.3100   -0.9160   -1.1340 ca        1 MOL      0.055572
    129 C43         3.6410   -0.5000   -1.1340 ca        1 MOL     -0.228682
    130 C44         1.7230   -1.2860   -2.3340 ca        1 MOL     -0.228682
    131 C45         4.4230   -0.4300   -2.2960 ca        1 MOL     -0.129185
    132 C46         2.4910   -1.2480   -3.5630 ca        1 MOL     -0.129185
    133 C47         3.8530   -0.8930   -3.5260 ca        1 MOL      0.181167
    134 O20         4.5200   -0.7170   -4.7390 oh        1 MOL     -0.510024
    135 H56         1.1180   -2.8260    2.7130 hn        1 MOL      0.293235
    136 H57         1.1820   -3.0770   -0.2040 h1        1 MOL      0.070188
    137 H58         1.9150   -0.3600    0.9180 hc        1 MOL      0.112328
    138 H59         0.4930   -0.6540   -0.0040 hc        1 MOL      0.112328
    139 H60         3.9660   -0.1490   -0.1640 ha        1 MOL      0.166255
    140 H61         0.6650   -1.4810   -2.3950 ha        1 MOL      0.166255
    141 H62         5.4580   -0.1230   -2.2480 ha        1 MOL      0.149275
    142 H63         2.0040   -1.4560   -4.5040 ha        1 MOL      0.149275
    143 H64         5.4640   -0.6220   -4.5710 ho        1 MOL      0.384652
    144 N13         3.5510   -3.9520    0.0900 n         1 MOL     -0.792963
    145 C48         4.9490   -4.4780    0.2170 c3        1 MOL      0.170430
    146 C49         5.9420   -3.7890   -0.7570 c         1 MOL      0.623468
    147 O21         6.1410   -4.1950   -1.8600 o         1 MOL     -0.479738
    148 C50         5.0060   -6.0370    0.1400 c3        1 MOL      0.291600
    149 C51         6.3890   -6.6130    0.4150 c3        1 MOL     -0.314251
    150 C52         7.2990   -6.8320   -0.8330 c         1 MOL      0.779442
    151 O22         6.9470   -6.8300   -1.9980 o         1 MOL     -0.690760
    152 O23         8.5290   -7.0510   -0.5000 o         1 MOL     -0.690760
    153 H65         3.1470   -4.1550   -0.8160 hn        1 MOL      0.333626
    154 H66         5.2100   -4.3810    1.2730 h1        1 MOL      0.138716
    155 H67         4.5510   -6.5090   -0.7350 hc        1 MOL     -0.066556
    156 H68         4.4170   -6.3510    1.0050 hc        1 MOL     -0.066556
    157 H69         6.2330   -7.5620    0.9240 hc        1 MOL      0.025952
    158 H70         6.9500   -5.9400    1.0610 hc        1 MOL      0.025952
    159 N14         6.7720   -2.7960   -0.3360 n         1 MOL     -0.618232
    160 C53         6.5960   -1.9880    0.8890 c3        1 MOL     -0.414599
    161 C54         7.0690   -2.8710    2.0420 c         1 MOL      0.808561
    162 O24         7.9990   -3.6340    2.0250 o         1 MOL     -0.527901
    163 C55         7.2230   -0.6260    0.8340 c3        1 MOL      0.184655
    164 C56         8.7420   -0.7010    0.5800 c3        1 MOL     -0.151085
    165 C57         9.2210    0.6660    0.0960 c         1 MOL      0.516438
    166 O25         9.2940    1.6220    0.8850 o         1 MOL     -0.673333
    167 O26         9.4580    0.8380   -1.1270 o         1 MOL     -0.673333
    168 H71         7.5850   -2.5730   -0.8910 hn        1 MOL      0.360870
    169 H72         5.5260   -1.7810    0.9830 h1        1 MOL      0.056674
    170 H73         7.0710   -0.1810    1.8180 hc        1 MOL     -0.006331
    171 H74         6.7220    0.0320    0.1200 hc        1 MOL     -0.006331
    172 H75         9.0300   -1.4830   -0.1090 hc        1 MOL      0.049933
    173 H76         9.2020   -0.9260    1.5420 hc        1 MOL      0.049933
    174 N15         6.3510   -2.6630    3.1700 n         1 MOL     -0.450881
    175 C58         6.3340   -3.4280    4.4150 c3        1 MOL     -0.362514
    176 H77         5.6360   -2.9670    5.1140 h1        1 MOL      0.134337
    177 H78         6.0200   -4.4510    4.2100 h1        1 MOL      0.134337
    178 H79         7.3330   -3.4340    4.8520 h1        1 MOL      0.134337
    179 H80         5.6240   -1.9690    3.2040 hn        1 MOL      0.319387
    180 Ca1         9.2860    3.5590   -0.9260 Ca        1 MOL      1.959831
    181 O27         6.7520    2.9060   -0.3180 oh        1 MOL     -0.891482
    182 H81         5.9030    3.0020   -0.7430 ho        1 MOL      0.385943
    183 H82         6.5770    2.3780    0.4640 ho        1 MOL      0.385943
    184 O28         9.7910    4.5100    1.5670 oh        1 MOL     -0.891482
    185 H83        10.6770    4.4120    1.9000 ho        1 MOL      0.385943
    186 H84         9.2650    4.7390    2.3310 ho        1 MOL      0.385943
    187 O29        10.6650    5.7760   -1.6080 oh        1 MOL     -0.891482
    188 H85        10.9790    5.8520   -2.5060 ho        1 MOL      0.385943
    189 H86        10.9690    6.5790   -1.1710 ho        1 MOL      0.385943
    190 O30         7.8800    3.4680   -3.1180 oh        1 MOL     -0.891482
    191 H87         7.3310    2.8050   -3.5300 ho        1 MOL      0.385943
    192 H88         7.7040    4.2690   -3.6160 ho        1 MOL      0.385943
    193 O31         7.7870    5.6770   -0.4590 oh        1 MOL     -0.891482
    194 H89         7.9210    6.4620    0.0760 ho        1 MOL      0.385943
    195 H90         6.8930    5.4000   -0.2500 ho        1 MOL      0.385943
    196 O32        11.9400    3.3050   -0.2840 oh        1 MOL     -0.891482
    197 H91        12.1210    2.7630    0.4790 ho        1 MOL      0.385943
    198 H92        12.5930    3.0290   -0.9320 ho        1 MOL      0.385943
    199 O33        10.8470    2.5240   -2.8720 oh        1 MOL     -0.891482
    200 H93        10.5650    1.9310   -3.5730 ho        1 MOL      0.385943
    201 H94        11.7540    2.2640   -2.6960 ho        1 MOL      0.385943
@<TRIPOS>BOND
     1    1    2 1   
     2    1    4 1   
     3    1    5 1   
     4    1    6 1   
     5    2    3 2   
     6    2    7 1   
     7    7    8 1   
     8    7   15 1   
     9    8    9 1   
    10    8   11 1   
    11    8   16 1   
    12    9   10 2   
    13    9   19 1   
    14   11   12 1   
    15   11   17 1   
    16   11   18 1   
    17   12   13 1   
    18   12   14 1   
    19   19   20 1   
    20   19   27 1   
    21   20   21 1   
    22   20   23 1   
    23   20   28 1   
    24   21   22 2   
    25   21   38 1   
    26   23   24 1   
    27   23   25 1   
    28   23   29 1   
    29   24   26 1   
    30   24   30 1   
    31   24   31 1   
    32   25   32 1   
    33   25   33 1   
    34   25   34 1   
    35   26   35 1   
    36   26   36 1   
    37   26   37 1   
    38   38   39 1   
    39   38   46 1   
    40   39   40 1   
    41   39   42 1   
    42   39   47 1   
    43   40   41 2   
    44   40   50 1   
    45   42   43 1   
    46   42   48 1   
    47   42   49 1   
    48   43   44 1   
    49   43   45 1   
    50   50   51 1   
    51   50   54 1   
    52   51   52 1   
    53   51   55 1   
    54   51   56 1   
    55   52   53 2   
    56   52   57 1   
    57   57   58 1   
    58   57   65 1   
    59   58   59 1   
    60   58   61 1   
    61   58   66 1   
    62   59   60 2   
    63   59   69 1   
    64   61   62 1   
    65   61   67 1   
    66   61   68 1   
    67   62   63 1   
    68   62   64 1   
    69   69   70 1   
    70   69   73 1   
    71   70   71 1   
    72   70   74 1   
    73   70   75 1   
    74   71   72 2   
    75   71   76 1   
    76   76   77 1   
    77   76   85 1   
    78   77   78 1   
    79   77   80 1   
    80   77   86 1   
    81   78   79 2   
    82   78   93 1   
    83   80   81 1   
    84   80   87 1   
    85   80   88 1   
    86   81   82 1   
    87   81   89 1   
    88   81   90 1   
    89   82   83 1   
    90   82   84 2   
    91   83   91 1   
    92   83   92 1   
    93   93   94 1   
    94   93  100 1   
    95   94   95 1   
    96   94   97 1   
    97   94  101 1   
    98   95   96 2   
    99   95  109 1   
   100   97   98 1   
   101   97   99 1   
   102   97  102 1   
   103   98  103 1   
   104   98  104 1   
   105   98  105 1   
   106   99  106 1   
   107   99  107 1   
   108   99  108 1   
   109  109  110 1   
   110  109  117 1   
   111  110  111 1   
   112  110  113 1   
   113  110  118 1   
   114  111  112 2   
   115  111  123 1   
   116  113  114 1   
   117  113  119 1   
   118  113  120 1   
   119  114  115 1   
   120  114  116 2   
   121  115  121 1   
   122  115  122 1   
   123  123  124 1   
   124  123  135 1   
   125  124  125 1   
   126  124  127 1   
   127  124  136 1   
   128  125  126 2   
   129  125  144 1   
   130  127  128 1   
   131  127  137 1   
   132  127  138 1   
   133  128  129 ar  
   134  128  130 ar  
   135  129  131 ar  
   136  129  139 1   
   137  130  132 ar  
   138  130  140 1   
   139  131  133 ar  
   140  131  141 1   
   141  132  133 ar  
   142  132  142 1   
   143  133  134 1   
   144  134  143 1   
   145  144  145 1   
   146  144  153 1   
   147  145  146 1   
   148  145  148 1   
   149  145  154 1   
   150  146  147 2   
   151  146  159 1   
   152  148  149 1   
   153  148  155 1   
   154  148  156 1   
   155  149  150 1   
   156  149  157 1   
   157  149  158 1   
   158  150  151 1   
   159  150  152 1   
   160  159  160 1   
   161  159  168 1   
   162  160  161 1   
   163  160  163 1   
   164  160  169 1   
   165  161  162 2   
   166  161  174 1   
   167  163  164 1   
   168  163  170 1   
   169  163  171 1   
   170  164  165 1   
   171  164  172 1   
   172  164  173 1   
   173  165  166 1   
   174  165  167 1   
   175  174  175 1   
   176  174  179 1   
   177  175  176 1   
   178  175  177 1   
   179  175  178 1   
   180  181  182 1   
   181  181  183 1   
   182  184  185 1   
   183  184  186 1   
   184  187  188 1   
   185  187  189 1   
   186  190  191 1   
   187  190  192 1   
   188  193  194 1   
   189  193  195 1   
   190  196  197 1   
   191  196  198 1   
   192  199  200 1   
   193  199  201 1   
@<TRIPOS>SUBSTRUCTURE
     1 MOL         1 TEMP              0 ****  ****    0 ROOT
