@<TRIPOS>MOLECULE
MOL
  189   185     1     0     0
SMALL
resp


@<TRIPOS>ATOM
      1 C1         -3.7280    4.7240    3.3080 c3        1 MOL     -0.365562
      2 C2         -4.5400    4.1460    2.0730 c         1 MOL      0.835734
      3 O1         -4.0180    3.7300    1.0190 o         1 MOL     -0.696639
      4 H1         -2.7100    4.9550    2.9970 hc        1 MOL      0.096954
      5 H2         -4.2130    5.6320    3.6690 hc        1 MOL      0.096954
      6 H3         -3.7040    3.9830    4.1070 hc        1 MOL      0.096954
      7 N1         -5.8770    4.0840    2.1850 n         1 MOL     -0.646465
      8 C3         -6.8010    3.1660    1.4460 c3        1 MOL      0.289675
      9 C4         -6.2250    1.7260    1.3680 c         1 MOL      0.500556
     10 O2         -5.6070    1.3940    0.3540 o         1 MOL     -0.587447
     11 C5         -7.2740    3.7620    0.1720 c3        1 MOL     -0.181619
     12 C6         -6.3210    4.6840   -0.6200 c         1 MOL      0.760697
     13 O3         -5.6060    4.1520   -1.4960 o         1 MOL     -0.735638
     14 O4         -6.4080    5.9330   -0.4820 o         1 MOL     -0.735638
     15 H4         -6.2970    4.2230    3.0960 hn        1 MOL      0.276287
     16 H5         -7.7590    2.9130    1.9100 h1        1 MOL     -0.018380
     17 H6         -8.0680    4.4710    0.3740 hc        1 MOL      0.031796
     18 H7         -7.7500    3.1010   -0.5480 hc        1 MOL      0.031796
     19 N2         -6.3320    1.0060    2.5000 n         1 MOL     -0.571104
     20 C7         -5.9250   -0.4140    2.7820 c3        1 MOL      0.207443
     21 C8         -6.7090   -1.4910    1.9600 c         1 MOL      0.409917
     22 O5         -7.3650   -2.3180    2.6020 o         1 MOL     -0.572075
     23 C9         -4.4460   -0.6300    2.5580 c3        1 MOL      0.027359
     24 C10        -4.0430   -1.9620    3.3520 c3        1 MOL     -0.086257
     25 C11        -3.5800    0.4760    3.2170 c3        1 MOL     -0.232564
     26 C12        -4.2030   -3.2930    2.6740 c3        1 MOL      0.020973
     27 H8         -6.7570    1.3780    3.3440 hn        1 MOL      0.290898
     28 H9         -6.1070   -0.5980    3.8420 h1        1 MOL      0.026851
     29 H10        -4.2930   -0.7080    1.4810 hc        1 MOL      0.058282
     30 H11        -4.7160   -1.9950    4.2170 hc        1 MOL      0.008440
     31 H12        -3.0300   -1.8040    3.7150 hc        1 MOL      0.008440
     32 H13        -2.5690    0.3180    2.8650 hc        1 MOL      0.052472
     33 H14        -3.8450    1.4780    2.8750 hc        1 MOL      0.052472
     34 H15        -3.6100    0.4670    4.3120 hc        1 MOL      0.052472
     35 H16        -3.6650   -4.1110    3.1530 hc        1 MOL     -0.000407
     36 H17        -5.2210   -3.6800    2.6350 hc        1 MOL     -0.000407
     37 H18        -3.7640   -3.1550    1.6790 hc        1 MOL     -0.000407
     38 N3         -6.6750   -1.4040    0.6210 n         1 MOL     -0.334279
     39 C13        -7.6470   -2.1380   -0.2630 c3        1 MOL      0.254091
     40 C14        -7.2470   -3.6530   -0.3720 c         1 MOL      0.499567
     41 O6         -8.1830   -4.4720   -0.2070 o         1 MOL     -0.539680
     42 C15        -7.8100   -1.4070   -1.5520 c3        1 MOL     -0.279415
     43 C16        -9.1330   -1.8440   -2.1970 c         1 MOL      0.683242
     44 O7        -10.1410   -1.3340   -1.6790 o         1 MOL     -0.717784
     45 O8         -9.1970   -2.7890   -2.9700 o         1 MOL     -0.717784
     46 H19        -6.0570   -0.6890    0.2690 hn        1 MOL      0.283238
     47 H20        -8.6570   -2.1070    0.1480 h1        1 MOL      0.037843
     48 H21        -7.0430   -1.6040   -2.3000 hc        1 MOL      0.052226
     49 H22        -7.9190   -0.3410   -1.3340 hc        1 MOL      0.052226
     50 N4         -6.0050   -4.1140   -0.6040 n         1 MOL     -0.497883
     51 C17        -4.8710   -3.3270   -0.9870 c3        1 MOL      0.087790
     52 C18        -3.6970   -4.2080   -1.4640 c         1 MOL      0.587891
     53 O9         -3.6430   -5.3490   -1.1280 o         1 MOL     -0.546286
     54 H23        -5.9090   -5.0900   -0.3640 hn        1 MOL      0.275311
     55 H24        -4.5880   -2.7070   -0.1270 h1        1 MOL      0.071836
     56 H25        -5.1640   -2.6040   -1.7560 h1        1 MOL      0.071836
     57 N5         -2.7570   -3.6250   -2.2450 n         1 MOL     -0.520825
     58 C19        -2.5270   -2.2620   -2.7370 c3        1 MOL      0.176003
     59 C20        -2.4430   -1.1780   -1.5670 c         1 MOL      0.278772
     60 O10        -3.3910   -0.3550   -1.4590 o         1 MOL     -0.604824
     61 C21        -3.5340   -1.8670   -3.8980 c3        1 MOL     -0.355468
     62 C22        -3.3050   -0.5160   -4.6740 c         1 MOL      0.756697
     63 O11        -2.1110   -0.1880   -4.8730 o         1 MOL     -0.696861
     64 O12        -4.2740    0.2870   -4.8470 o         1 MOL     -0.696861
     65 H26        -2.0160   -4.2330   -2.5580 hn        1 MOL      0.270897
     66 H27        -1.5660   -2.2750   -3.2500 h1        1 MOL      0.067553
     67 H28        -4.5460   -2.0120   -3.5280 hc        1 MOL      0.086716
     68 H29        -3.4530   -2.5920   -4.7170 hc        1 MOL      0.086716
     69 N6         -1.3430   -1.0810   -0.7560 n         1 MOL     -0.119964
     70 C23        -0.1120   -1.8470   -0.8080 c3        1 MOL      0.019821
     71 C24         0.1040   -2.9830    0.1850 c         1 MOL      0.428054
     72 O13        -0.7430   -3.2380    1.0850 o         1 MOL     -0.465348
     73 H30        -1.3200   -0.2940   -0.1240 hn        1 MOL      0.167201
     74 H31         0.6990   -1.1210   -0.6770 h1        1 MOL      0.010926
     75 H32         0.0810   -2.2500   -1.8050 h1        1 MOL      0.010926
     76 N7          1.1450   -3.7620   -0.0170 n         1 MOL     -0.368334
     77 C25         1.5760   -4.9700    0.8260 c3        1 MOL     -0.085860
     78 C26         2.0320   -4.6300    2.2470 c         1 MOL      0.431094
     79 O14         2.1800   -5.4230    3.1440 o         1 MOL     -0.483242
     80 C27         2.6890   -5.7010    0.0040 c3        1 MOL      0.073436
     81 C28         2.2030   -6.0610   -1.4190 c3        1 MOL     -0.171610
     82 C29         3.1990   -6.8830   -2.1930 c         1 MOL      0.604219
     83 N8          3.7510   -6.5530   -3.3390 n         1 MOL     -0.730502
     84 O15         3.6350   -7.8770   -1.6020 o         1 MOL     -0.556811
     85 H33         1.8810   -3.3820   -0.6090 hn        1 MOL      0.286481
     86 H34         0.7760   -5.7010    0.9640 h1        1 MOL      0.162398
     87 H35         2.8070   -6.6480    0.5210 hc        1 MOL      0.042111
     88 H36         3.6360   -5.1810   -0.1010 hc        1 MOL      0.042111
     89 H37         2.0420   -5.1480   -1.9760 hc        1 MOL      0.039267
     90 H38         1.2360   -6.5800   -1.4000 hc        1 MOL      0.039267
     91 H39         3.3840   -5.7370   -3.8210 hn        1 MOL      0.347035
     92 H40         4.3100   -7.1840   -3.8840 hn        1 MOL      0.347035
     93 N9          2.5450   -3.3970    2.4180 n         1 MOL     -0.318886
     94 C30         2.9690   -2.7680    3.6340 c3        1 MOL     -0.155957
     95 C31         4.3550   -2.1220    3.6300 c         1 MOL      0.630263
     96 O16         4.9600   -1.9390    4.6360 o         1 MOL     -0.576141
     97 C32         1.9210   -1.8080    4.3670 c3        1 MOL      0.187002
     98 C33         0.5660   -2.4480    4.7310 c3        1 MOL     -0.231051
     99 C34         1.5690   -0.6120    3.5900 c3        1 MOL     -0.231051
    100 H41         2.5840   -2.7960    1.6110 hn        1 MOL      0.203094
    101 H42         3.1790   -3.5450    4.3620 h1        1 MOL      0.120700
    102 H43         2.3550   -1.4860    5.3140 hc        1 MOL     -0.009483
    103 H44         0.1540   -2.9120    3.8380 hc        1 MOL      0.066273
    104 H45         0.7670   -3.2170    5.4780 hc        1 MOL      0.066273
    105 H46        -0.1280   -1.7510    5.2020 hc        1 MOL      0.066273
    106 H47         2.4390   -0.0370    3.2520 hc        1 MOL      0.066273
    107 H48         0.8920   -0.8360    2.7730 hc        1 MOL      0.066273
    108 H49         0.9840    0.0680    4.2030 hc        1 MOL      0.066273
    109 N10         4.9520   -1.8700    2.4810 n         1 MOL     -0.451435
    110 C35         6.2970   -1.3770    2.3220 c3        1 MOL      0.227645
    111 C36         6.4910    0.0390    1.6820 c         1 MOL      0.454665
    112 O17         7.2380    0.8540    2.2310 o         1 MOL     -0.566178
    113 C37         7.1380   -2.4420    1.5590 c3        1 MOL     -0.247879
    114 C38         6.5690   -2.9840    0.2930 c         1 MOL      0.544760
    115 N11         7.3390   -3.8940   -0.3020 n         1 MOL     -0.738859
    116 O18         5.5420   -2.5980   -0.2230 o         1 MOL     -0.535078
    117 H50         4.3200   -1.8580    1.7010 hn        1 MOL      0.249753
    118 H51         6.7430   -1.3260    3.3180 h1        1 MOL      0.050398
    119 H52         7.1590   -3.1900    2.3560 hc        1 MOL      0.092595
    120 H53         8.1540   -2.0740    1.4350 hc        1 MOL      0.092595
    121 H54         8.3110   -4.0590   -0.1160 hn        1 MOL      0.351915
    122 H55         7.0330   -4.1170   -1.2480 hn        1 MOL      0.351915
    123 N12         5.8430    0.2650    0.5870 n         1 MOL     -0.464069
    124 C39         6.1370    1.3770   -0.3250 c3        1 MOL      0.408931
    125 C40         4.8360    2.1600   -0.5240 c         1 MOL      0.430156
    126 O19         3.7640    1.5730   -0.5610 o         1 MOL     -0.476233
    127 C41         6.6700    0.9840   -1.7410 c3        1 MOL     -0.051209
    128 C42         8.0490    0.1640   -1.7130 ca        1 MOL     -0.062403
    129 C43         9.2000    0.7350   -1.2540 ca        1 MOL     -0.085713
    130 C44         8.0780   -1.2030   -2.1140 ca        1 MOL     -0.085713
    131 C45        10.3430   -0.0100   -1.1510 ca        1 MOL     -0.290043
    132 C46         9.2170   -1.9990   -2.1200 ca        1 MOL     -0.290043
    133 C47        10.3740   -1.3410   -1.6840 ca        1 MOL      0.381362
    134 O20        11.5260   -1.9540   -1.6850 oh        1 MOL     -0.519540
    135 H56         5.0540   -0.3000    0.3190 hn        1 MOL      0.222950
    136 H57         6.7980    2.1230    0.1130 h1        1 MOL     -0.011993
    137 H58         6.9740    1.9410   -2.1880 hc        1 MOL      0.050058
    138 H59         5.9360    0.5080   -2.3860 hc        1 MOL      0.050058
    139 H60         9.2350    1.6980   -0.7750 ha        1 MOL      0.112767
    140 H61         7.1060   -1.6390   -2.3300 ha        1 MOL      0.112767
    141 H62        11.2170    0.4700   -0.7250 ha        1 MOL      0.139289
    142 H63         9.1180   -3.0400   -2.3640 ha        1 MOL      0.139289
    143 H64        12.1600   -1.4780   -1.1440 ho        1 MOL      0.373907
    144 N13         5.0840    3.4800   -0.7860 n         1 MOL     -0.616635
    145 C48         4.1060    4.4530   -1.3010 c3        1 MOL      0.112049
    146 C49         2.8080    4.6620   -0.5000 c         1 MOL      0.378844
    147 O21         1.9630    5.5240   -0.8050 o         1 MOL     -0.476304
    148 C50         3.9340    4.3140   -2.7630 c3        1 MOL     -0.016853
    149 C51         5.3390    4.3540   -3.5110 c3        1 MOL     -0.395668
    150 C52         6.1190    5.6810   -3.2970 c         1 MOL      0.806956
    151 O22         7.3420    5.6740   -3.2730 o         1 MOL     -0.744878
    152 O23         5.5840    6.8200   -3.2450 o         1 MOL     -0.744878
    153 H65         5.9750    3.9170   -0.6110 hn        1 MOL      0.345912
    154 H66         4.5140    5.4600   -1.1480 h1        1 MOL      0.066082
    155 H67         3.1600    5.0270   -3.0240 hc        1 MOL      0.051693
    156 H68         3.5170    3.3110   -2.9060 hc        1 MOL      0.051693
    157 H69         5.1090    4.2330   -4.5710 hc        1 MOL      0.075869
    158 H70         5.9220    3.4730   -3.2450 hc        1 MOL      0.075869
    159 N14         2.6370    3.8900    0.5680 n         1 MOL     -0.254571
    160 C53         1.5320    4.1380    1.5300 c3        1 MOL     -0.021996
    161 C54         1.9400    4.9740    2.7530 c         1 MOL      0.455108
    162 O24         1.0940    5.6460    3.3550 o         1 MOL     -0.547107
    163 C55         0.9500    2.7590    2.0590 c3        1 MOL     -0.059711
    164 C56         0.4110    1.9040    0.8780 c3        1 MOL      0.122702
    165 C57        -1.0070    2.2970    0.3700 c         1 MOL      0.511232
    166 O25        -1.9070    1.4250    0.4580 o         1 MOL     -0.566918
    167 O26        -1.2050    3.2440   -0.3590 o         1 MOL     -0.566918
    168 H71         3.1510    3.0250    0.7220 hn        1 MOL      0.225235
    169 H72         0.7060    4.6810    1.0680 h1        1 MOL      0.108621
    170 H73         0.2210    2.7880    2.8800 hc        1 MOL     -0.001274
    171 H74         1.7340    2.1790    2.5580 hc        1 MOL     -0.001274
    172 H75         0.2360    0.9290    1.3280 hc        1 MOL     -0.031481
    173 H76         1.1820    1.7670    0.1180 hc        1 MOL     -0.031481
    174 N15         3.2170    5.0260    3.0530 n         1 MOL     -0.207959
    175 C58         3.9030    5.8310    4.1310 c3        1 MOL     -0.267782
    176 H77         4.9310    6.0370    3.8310 h1        1 MOL      0.115401
    177 H78         3.3720    6.7720    4.2750 h1        1 MOL      0.115401
    178 H79         3.9040    5.2650    5.0620 h1        1 MOL      0.115401
    179 H80         3.7790    4.4550    2.4420 hn        1 MOL      0.176109
    180 Ca1        -3.6620    2.3360   -1.1690 Ca        1 MOL      1.708330
    181 O27        -1.8700    1.7460   -3.1640 oh        1 MOL     -0.836202
    182 H81        -2.0630    0.9540   -3.6710 ho        1 MOL      0.403542
    183 H82        -1.4800    2.3470   -3.7980 ho        1 MOL      0.403542
    184 O28        -5.3660    1.4610   -2.8030 oh        1 MOL     -0.836202
    185 H83        -6.2480    1.6190   -3.1600 ho        1 MOL      0.403542
    186 H84        -4.9060    1.0010   -3.5070 ho        1 MOL      0.403542
    187 O29        -2.8400    4.6240   -2.3370 oh        1 MOL     -0.836202
    188 H85        -3.5410    5.2380   -2.5630 ho        1 MOL      0.403542
    189 H86        -2.2970    5.0930   -1.7170 ho        1 MOL      0.403542
@<TRIPOS>BOND
     1    1    2 1   
     2    1    4 1   
     3    1    5 1   
     4    1    6 1   
     5    2    3 2   
     6    2    7 1   
     7    7    8 1   
     8    7   15 1   
     9    8    9 1   
    10    8   11 1   
    11    8   16 1   
    12    9   10 2   
    13    9   19 1   
    14   11   12 1   
    15   11   17 1   
    16   11   18 1   
    17   12   13 1   
    18   12   14 1   
    19   19   20 1   
    20   19   27 1   
    21   20   21 1   
    22   20   23 1   
    23   20   28 1   
    24   21   22 2   
    25   21   38 1   
    26   23   24 1   
    27   23   25 1   
    28   23   29 1   
    29   24   26 1   
    30   24   30 1   
    31   24   31 1   
    32   25   32 1   
    33   25   33 1   
    34   25   34 1   
    35   26   35 1   
    36   26   36 1   
    37   26   37 1   
    38   38   39 1   
    39   38   46 1   
    40   39   40 1   
    41   39   42 1   
    42   39   47 1   
    43   40   41 2   
    44   40   50 1   
    45   42   43 1   
    46   42   48 1   
    47   42   49 1   
    48   43   44 1   
    49   43   45 1   
    50   50   51 1   
    51   50   54 1   
    52   51   52 1   
    53   51   55 1   
    54   51   56 1   
    55   52   53 2   
    56   52   57 1   
    57   57   58 1   
    58   57   65 1   
    59   58   59 1   
    60   58   61 1   
    61   58   66 1   
    62   59   60 2   
    63   59   69 1   
    64   61   62 1   
    65   61   67 1   
    66   61   68 1   
    67   62   63 1   
    68   62   64 1   
    69   69   70 1   
    70   69   73 1   
    71   70   71 1   
    72   70   74 1   
    73   70   75 1   
    74   71   72 2   
    75   71   76 1   
    76   76   77 1   
    77   76   85 1   
    78   77   78 1   
    79   77   80 1   
    80   77   86 1   
    81   78   79 2   
    82   78   93 1   
    83   80   81 1   
    84   80   87 1   
    85   80   88 1   
    86   81   82 1   
    87   81   89 1   
    88   81   90 1   
    89   82   83 1   
    90   82   84 2   
    91   83   91 1   
    92   83   92 1   
    93   93   94 1   
    94   93  100 1   
    95   94   95 1   
    96   94   97 1   
    97   94  101 1   
    98   95   96 2   
    99   95  109 1   
   100   97   98 1   
   101   97   99 1   
   102   97  102 1   
   103   98  103 1   
   104   98  104 1   
   105   98  105 1   
   106   99  106 1   
   107   99  107 1   
   108   99  108 1   
   109  109  110 1   
   110  109  117 1   
   111  110  111 1   
   112  110  113 1   
   113  110  118 1   
   114  111  112 2   
   115  111  123 1   
   116  113  114 1   
   117  113  119 1   
   118  113  120 1   
   119  114  115 1   
   120  114  116 2   
   121  115  121 1   
   122  115  122 1   
   123  123  124 1   
   124  123  135 1   
   125  124  125 1   
   126  124  127 1   
   127  124  136 1   
   128  125  126 2   
   129  125  144 1   
   130  127  128 1   
   131  127  137 1   
   132  127  138 1   
   133  128  129 ar  
   134  128  130 ar  
   135  129  131 ar  
   136  129  139 1   
   137  130  132 ar  
   138  130  140 1   
   139  131  133 ar  
   140  131  141 1   
   141  132  133 ar  
   142  132  142 1   
   143  133  134 1   
   144  134  143 1   
   145  144  145 1   
   146  144  153 1   
   147  145  146 1   
   148  145  148 1   
   149  145  154 1   
   150  146  147 2   
   151  146  159 1   
   152  148  149 1   
   153  148  155 1   
   154  148  156 1   
   155  149  150 1   
   156  149  157 1   
   157  149  158 1   
   158  150  151 1   
   159  150  152 1   
   160  159  160 1   
   161  159  168 1   
   162  160  161 1   
   163  160  163 1   
   164  160  169 1   
   165  161  162 2   
   166  161  174 1   
   167  163  164 1   
   168  163  170 1   
   169  163  171 1   
   170  164  165 1   
   171  164  172 1   
   172  164  173 1   
   173  165  166 1   
   174  165  167 1   
   175  174  175 1   
   176  174  179 1   
   177  175  176 1   
   178  175  177 1   
   179  175  178 1   
   180  181  182 1   
   181  181  183 1   
   182  184  185 1   
   183  184  186 1   
   184  187  188 1   
   185  187  189 1   
@<TRIPOS>SUBSTRUCTURE
     1 MOL         1 TEMP              0 ****  ****    0 ROOT
