@<TRIPOS>MOLECULE
MOL
  184   179     1     0     0
SMALL
resp


@<TRIPOS>ATOM
      1 C1          9.0610   -8.0440    1.0460 c3        1 MOL     -0.552353
      2 C2          8.7390   -6.9470    0.0390 c         1 MOL      0.740155
      3 O1          9.1060   -7.1060   -1.1580 o         1 MOL     -0.601128
      4 H1          9.7010   -7.6400    1.8300 hc        1 MOL      0.150508
      5 H2          8.1360   -8.4150    1.4870 hc        1 MOL      0.150508
      6 H3          9.5770   -8.8620    0.5410 hc        1 MOL      0.150508
      7 N1          8.0120   -5.8540    0.3540 n         1 MOL     -0.491970
      8 C3          7.7880   -5.1450    1.6040 c3        1 MOL     -0.114594
      9 C4          7.6610   -3.6520    1.4430 c         1 MOL      0.630407
     10 O2          7.1160   -3.2300    0.3940 o         1 MOL     -0.436051
     11 C5          6.6290   -5.7410    2.4090 c3        1 MOL     -0.070415
     12 C6          5.3290   -5.8490    1.6350 c         1 MOL      0.701265
     13 O3          4.4050   -6.4070    2.2670 o         1 MOL     -0.701320
     14 O4          5.1580   -5.4670    0.4400 o         1 MOL     -0.701320
     15 H4          7.7560   -5.3390   -0.4770 hn        1 MOL      0.227393
     16 H5          8.6510   -5.3680    2.2240 h1        1 MOL      0.056975
     17 H6          6.5640   -5.0460    3.2510 hc        1 MOL      0.026247
     18 H7          6.9510   -6.7290    2.7130 hc        1 MOL      0.026247
     19 N2          7.9480   -2.8750    2.4880 n         1 MOL     -0.537713
     20 C7          7.8320   -1.4340    2.4320 c3        1 MOL      0.052149
     21 C8          8.4330   -0.7680    1.2760 c         1 MOL      0.657510
     22 O5          9.4080   -1.3130    0.7360 o         1 MOL     -0.534215
     23 C9          8.5200   -0.9830    3.7320 c3        1 MOL     -0.307941
     24 H8          8.3380   -3.2690    3.3360 hn        1 MOL      0.334330
     25 H9          6.8000   -1.1080    2.5880 h1        1 MOL      0.076998
     26 H10         9.5280   -1.3730    3.8170 hc        1 MOL      0.094006
     27 H11         8.6160    0.1050    3.7230 hc        1 MOL      0.094006
     28 H12         7.9300   -1.3020    4.5980 hc        1 MOL      0.094006
     29 N3          7.8320    0.2980    0.7550 n         1 MOL     -0.704630
     30 C10         8.2590    1.0640   -0.5140 c3        1 MOL      0.344180
     31 C11         8.4740    2.5380   -0.3760 c         1 MOL      0.423553
     32 O6          8.1390    3.1380    0.6570 o         1 MOL     -0.493710
     33 C12         7.1200    0.8880   -1.5710 c3        1 MOL     -0.080337
     34 C13         6.7080   -0.5020   -1.8630 c         1 MOL      0.639832
     35 O7          5.6820   -1.0130   -1.4030 o         1 MOL     -0.708316
     36 O8          7.3880   -1.1320   -2.6740 o         1 MOL     -0.708316
     37 H13         7.0130    0.7100    1.1660 hn        1 MOL      0.318980
     38 H14         9.2300    0.7240   -0.8830 h1        1 MOL     -0.006276
     39 H15         7.3560    1.3940   -2.5130 hc        1 MOL      0.010341
     40 H16         6.1940    1.2920   -1.1710 hc        1 MOL      0.010341
     41 N4          9.0500    3.2150   -1.3700 n         1 MOL     -0.263085
     42 C14         9.5100    4.6020   -1.2630 c3        1 MOL     -0.216950
     43 C15         8.4430    5.7330   -1.0480 c         1 MOL      0.582068
     44 O9          8.8170    6.8100   -0.6070 o         1 MOL     -0.559373
     45 H17         9.4690    2.6720   -2.1180 hn        1 MOL      0.240177
     46 H18         9.9300    4.9310   -2.2140 h1        1 MOL      0.107355
     47 H19        10.2880    4.6690   -0.5040 h1        1 MOL      0.107355
     48 N5          7.1930    5.3770   -1.2820 n         1 MOL     -0.406987
     49 C16         6.0160    6.1030   -0.8780 c3        1 MOL      0.299383
     50 C17         4.9940    4.9570   -0.5260 c         1 MOL      0.419041
     51 O10         5.1250    3.7770   -1.0040 o         1 MOL     -0.495888
     52 C18         5.4530    6.9670   -2.0350 c3        1 MOL     -0.407040
     53 C19         4.3270    7.8610   -1.6650 c         1 MOL      0.743669
     54 N6          4.3180    9.0060   -2.2410 n         1 MOL     -0.776121
     55 O11         3.4780    7.6420   -0.8510 o         1 MOL     -0.558275
     56 H20         7.1360    4.3790   -1.4730 hn        1 MOL      0.159907
     57 H21         6.2190    6.7700   -0.0360 h1        1 MOL      0.043454
     58 H22         4.9910    6.2550   -2.7230 hc        1 MOL      0.102159
     59 H23         6.3310    7.4790   -2.4240 hc        1 MOL      0.102159
     60 H24         5.0480    9.2320   -2.9070 hn        1 MOL      0.353872
     61 H25         3.4990    9.5520   -2.0570 hn        1 MOL      0.353872
     62 N7          3.9920    5.2340    0.3440 n         1 MOL     -0.359801
     63 C20         3.0900    4.3050    0.9740 c3        1 MOL     -0.005900
     64 C21         2.0050    5.0310    1.7760 c         1 MOL      0.618733
     65 O12         2.1860    6.1350    2.2690 o         1 MOL     -0.538906
     66 H26         3.9700    6.1900    0.6650 hn        1 MOL      0.224795
     67 H27         3.6990    3.8510    1.7580 h1        1 MOL      0.090556
     68 H28         2.7570    3.5520    0.2700 h1        1 MOL      0.090556
     69 N8          0.8800    4.3210    2.1640 n         1 MOL     -0.610334
     70 C22         0.5050    2.8670    1.9670 c3        1 MOL     -0.138219
     71 C23        -0.9240    2.7880    1.4770 c         1 MOL      0.657818
     72 O13        -1.8280    3.4960    1.9620 o         1 MOL     -0.553468
     73 C24         0.6680    2.1300    3.3350 c3        1 MOL      0.372231
     74 C25         0.0630    0.7670    3.2070 c3        1 MOL     -0.345100
     75 O14         2.0640    1.9890    3.6620 oh        1 MOL     -0.633773
     76 H29         0.2010    4.8910    2.6510 hn        1 MOL      0.340083
     77 H30         1.1620    2.5240    1.1740 h1        1 MOL      0.135866
     78 H31         0.1100    2.6440    4.1090 h1        1 MOL      0.028871
     79 H32         2.1020    2.3190    4.5660 ho        1 MOL      0.385578
     80 H33        -1.0180    0.7680    3.2630 hc        1 MOL      0.106437
     81 H34         0.5130    0.2490    2.3570 hc        1 MOL      0.106437
     82 H35         0.3770    0.2700    4.1270 hc        1 MOL      0.106437
     83 N9         -1.1670    2.1170    0.3590 n         1 MOL     -0.487489
     84 C26        -2.4870    1.8320   -0.1070 c3        1 MOL     -0.122316
     85 C27        -3.0020    0.4810    0.5030 c         1 MOL      0.458828
     86 O15        -2.2300   -0.4960    0.5370 o         1 MOL     -0.544721
     87 C28        -2.4770    1.7800   -1.6520 c3        1 MOL      0.230005
     88 C29        -2.3030    3.2290   -2.1940 c3        1 MOL      0.136583
     89 C30        -3.7530    1.2250   -2.3060 c3        1 MOL     -0.266222
     90 C31        -2.0380    3.4250   -3.6810 c3        1 MOL     -0.365080
     91 H36        -0.3730    1.6920   -0.1170 hn        1 MOL      0.257142
     92 H37        -3.1910    2.6000    0.2310 h1        1 MOL      0.158915
     93 H38        -1.6080    1.2440   -2.0220 hc        1 MOL     -0.015200
     94 H39        -1.4890    3.6770   -1.6150 hc        1 MOL     -0.026757
     95 H40        -3.2210    3.7290   -1.8650 hc        1 MOL     -0.026757
     96 H41        -3.8600    0.1940   -1.9540 hc        1 MOL      0.068849
     97 H42        -4.5630    1.9380   -2.2080 hc        1 MOL      0.068849
     98 H43        -3.5230    1.2110   -3.3680 hc        1 MOL      0.068849
     99 H44        -1.3720    2.6190   -4.0140 hc        1 MOL      0.078178
    100 H45        -3.0080    3.4780   -4.1740 hc        1 MOL      0.078178
    101 H46        -1.5320    4.3800   -3.8300 hc        1 MOL      0.078178
    102 N10        -4.2560    0.3120    0.9250 n         1 MOL     -0.359635
    103 C32        -5.3480    1.2520    1.1430 c3        1 MOL      0.240579
    104 C33        -6.7070    0.5230    1.0120 c         1 MOL      0.373706
    105 O16        -6.7760   -0.7360    1.0130 o         1 MOL     -0.466667
    106 C34        -5.3630    1.9450    2.5780 c3        1 MOL     -0.047800
    107 C35        -4.8770    1.1270    3.7840 c         1 MOL      0.673018
    108 O17        -5.2510   -0.0470    3.8900 o         1 MOL     -0.697088
    109 O18        -4.1710    1.6510    4.6540 o         1 MOL     -0.697088
    110 H47        -4.3800   -0.5600    1.4200 hn        1 MOL      0.374411
    111 H48        -5.3010    2.0910    0.4410 h1        1 MOL     -0.045817
    112 H49        -6.3340    2.3880    2.8040 hc        1 MOL     -0.050215
    113 H50        -4.6720    2.7650    2.3550 hc        1 MOL     -0.050215
    114 N11        -7.7900    1.3060    0.9460 n         1 MOL     -0.432190
    115 C36        -9.1940    0.7860    0.7750 c3        1 MOL      0.279335
    116 C37        -9.5120    0.7320   -0.7860 c         1 MOL      0.295485
    117 O19        -9.5650    1.8650   -1.3410 o         1 MOL     -0.522534
    118 C38       -10.1330    1.7470    1.4950 c3        1 MOL     -0.427849
    119 C39       -11.5690    1.1830    1.4930 ca        1 MOL      0.263743
    120 C40       -12.4910    1.7630    0.6350 ca        1 MOL     -0.234948
    121 C41       -11.9720    0.3340    2.5030 ca        1 MOL     -0.234948
    122 C42       -13.8790    1.3820    0.6510 ca        1 MOL     -0.065256
    123 C43       -13.3060   -0.0230    2.6370 ca        1 MOL     -0.065256
    124 C44       -14.1970    0.5470    1.6920 ca        1 MOL     -0.170698
    125 H51        -7.6990    2.3070    0.8250 hn        1 MOL      0.280855
    126 H52        -9.1050   -0.1810    1.2570 h1        1 MOL      0.068445
    127 H53        -9.9480    2.7160    1.0260 hc        1 MOL      0.135942
    128 H54        -9.8280    1.8660    2.5320 hc        1 MOL      0.135942
    129 H55       -12.1900    2.2570   -0.2800 ha        1 MOL      0.139508
    130 H56       -11.2270   -0.0520    3.1790 ha        1 MOL      0.139508
    131 H57       -14.6130    1.8690    0.0320 ha        1 MOL      0.106978
    132 H58       -13.5890   -0.7430    3.3990 ha        1 MOL      0.106978
    133 H59       -15.2510    0.3470    1.8260 ha        1 MOL      0.081290
    134 N12        -9.9950   -0.4240   -1.3770 n         1 MOL     -0.017372
    135 C45       -10.0160   -1.7380   -0.8530 c3        1 MOL      0.158545
    136 C46        -8.8310   -2.5730   -1.3110 c         1 MOL      0.516501
    137 O20        -8.9650   -3.7550   -1.5490 o         1 MOL     -0.556560
    138 C47       -11.4510   -2.2800   -1.2110 c3        1 MOL      0.018948
    139 C48       -11.7700   -1.4830   -2.5070 c3        1 MOL     -0.074465
    140 C49       -10.8400   -0.3160   -2.4930 c3        1 MOL      0.070994
    141 H60        -9.9490   -1.7740    0.2360 h1        1 MOL     -0.001452
    142 H61       -11.5900   -3.3520   -1.3380 hc        1 MOL     -0.009594
    143 H62       -12.0640   -1.8360   -0.4250 hc        1 MOL     -0.009594
    144 H63       -11.5750   -1.9940   -3.4510 hc        1 MOL      0.012673
    145 H64       -12.7930   -1.1120   -2.5870 hc        1 MOL      0.012673
    146 H65       -10.1790   -0.1930   -3.3470 h1        1 MOL      0.006545
    147 H66       -11.4390    0.6020   -2.4780 h1        1 MOL      0.006545
    148 N13        -7.6750   -1.9720   -1.5730 n         1 MOL     -0.562069
    149 C50        -6.4800   -2.6690   -2.1660 c3        1 MOL      0.408940
    150 C51        -5.8860   -1.7880   -3.2820 c         1 MOL      0.209618
    151 O21        -6.1130   -0.5450   -3.2080 o         1 MOL     -0.526724
    152 C52        -5.4560   -2.9040   -1.0650 c3        1 MOL     -0.114933
    153 C53        -5.8920   -4.0380   -0.1170 c3        1 MOL     -0.370596
    154 C54        -4.8660   -4.5650    0.8530 c         1 MOL      0.781510
    155 O22        -4.1920   -5.6030    0.5640 o         1 MOL     -0.720479
    156 O23        -4.6360   -3.9630    1.9230 o         1 MOL     -0.720479
    157 H67        -7.4860   -1.0950   -1.1010 hn        1 MOL      0.239383
    158 H68        -6.7830   -3.6250   -2.5980 h1        1 MOL      0.040985
    159 H69        -5.2820   -1.9590   -0.5340 hc        1 MOL      0.066339
    160 H70        -4.5180   -3.3430   -1.4050 hc        1 MOL      0.066339
    161 H71        -6.3090   -4.8490   -0.7060 hc        1 MOL      0.060784
    162 H72        -6.8260   -3.7050    0.3350 hc        1 MOL      0.060784
    163 N14        -5.1070   -2.2950   -4.2060 n         1 MOL     -0.223172
    164 C55        -4.7360   -3.6890   -4.3860 c3        1 MOL     -0.161946
    165 H73        -4.1770   -4.0310   -3.5150 h1        1 MOL      0.074257
    166 H74        -5.6350   -4.2940   -4.5000 h1        1 MOL      0.074257
    167 H75        -4.1160   -3.7880   -5.2760 h1        1 MOL      0.074257
    168 H76        -4.7600   -1.6700   -4.9080 hn        1 MOL      0.255237
    169 Ca1         4.9310   -3.4620   -1.2430 Ca        1 MOL      1.704410
    170 O24         6.9200   -4.9170   -2.5330 oh        1 MOL     -0.809187
    171 H77         7.4000   -4.5210   -3.2600 ho        1 MOL      0.396983
    172 H78         6.8060   -5.8330   -2.8010 ho        1 MOL      0.396983
    173 O25         5.0520   -2.5340   -3.9120 oh        1 MOL     -0.809187
    174 H79         4.7480   -2.4030   -4.8080 ho        1 MOL      0.396983
    175 H80         5.7350   -1.8800   -3.7840 ho        1 MOL      0.396983
    176 O26         4.2730   -2.2080    1.1630 oh        1 MOL     -0.809187
    177 H81         4.4860   -2.5540    2.0350 ho        1 MOL      0.396983
    178 H82         3.9540   -1.3280    1.3300 ho        1 MOL      0.396983
    179 O27         2.4730   -4.1630   -0.4760 oh        1 MOL     -0.809187
    180 H83         2.0540   -3.9460    0.3630 ho        1 MOL      0.396983
    181 H84         2.4320   -5.1210   -0.5150 ho        1 MOL      0.396983
    182 O28         2.6570   -1.8510   -2.3580 oh        1 MOL     -0.809187
    183 H85         2.5620   -1.0080   -1.9290 ho        1 MOL      0.396983
    184 H86         1.7850   -2.0380   -2.7220 ho        1 MOL      0.396983
@<TRIPOS>BOND
     1    1    2 1   
     2    1    4 1   
     3    1    5 1   
     4    1    6 1   
     5    2    3 2   
     6    2    7 1   
     7    7    8 1   
     8    7   15 1   
     9    8    9 1   
    10    8   11 1   
    11    8   16 1   
    12    9   10 2   
    13    9   19 1   
    14   11   12 1   
    15   11   17 1   
    16   11   18 1   
    17   12   13 1   
    18   12   14 1   
    19   19   20 1   
    20   19   24 1   
    21   20   21 1   
    22   20   23 1   
    23   20   25 1   
    24   21   22 2   
    25   21   29 1   
    26   23   26 1   
    27   23   27 1   
    28   23   28 1   
    29   29   30 1   
    30   29   37 1   
    31   30   31 1   
    32   30   33 1   
    33   30   38 1   
    34   31   32 2   
    35   31   41 1   
    36   33   34 1   
    37   33   39 1   
    38   33   40 1   
    39   34   35 1   
    40   34   36 1   
    41   41   42 1   
    42   41   45 1   
    43   42   43 1   
    44   42   46 1   
    45   42   47 1   
    46   43   44 2   
    47   43   48 1   
    48   48   49 1   
    49   48   56 1   
    50   49   50 1   
    51   49   52 1   
    52   49   57 1   
    53   50   51 2   
    54   50   62 1   
    55   52   53 1   
    56   52   58 1   
    57   52   59 1   
    58   53   54 1   
    59   53   55 2   
    60   54   60 1   
    61   54   61 1   
    62   62   63 1   
    63   62   66 1   
    64   63   64 1   
    65   63   67 1   
    66   63   68 1   
    67   64   65 2   
    68   64   69 1   
    69   69   70 1   
    70   69   76 1   
    71   70   71 1   
    72   70   73 1   
    73   70   77 1   
    74   71   72 2   
    75   71   83 1   
    76   73   74 1   
    77   73   75 1   
    78   73   78 1   
    79   74   80 1   
    80   74   81 1   
    81   74   82 1   
    82   75   79 1   
    83   83   84 1   
    84   83   91 1   
    85   84   85 1   
    86   84   87 1   
    87   84   92 1   
    88   85   86 2   
    89   85  102 1   
    90   87   88 1   
    91   87   89 1   
    92   87   93 1   
    93   88   90 1   
    94   88   94 1   
    95   88   95 1   
    96   89   96 1   
    97   89   97 1   
    98   89   98 1   
    99   90   99 1   
   100   90  100 1   
   101   90  101 1   
   102  102  103 1   
   103  102  110 1   
   104  103  104 1   
   105  103  106 1   
   106  103  111 1   
   107  104  105 2   
   108  104  114 1   
   109  106  107 1   
   110  106  112 1   
   111  106  113 1   
   112  107  108 1   
   113  107  109 1   
   114  114  115 1   
   115  114  125 1   
   116  115  116 1   
   117  115  118 1   
   118  115  126 1   
   119  116  117 2   
   120  116  134 1   
   121  118  119 1   
   122  118  127 1   
   123  118  128 1   
   124  119  120 ar  
   125  119  121 ar  
   126  120  122 ar  
   127  120  129 1   
   128  121  123 ar  
   129  121  130 1   
   130  122  124 ar  
   131  122  131 1   
   132  123  124 ar  
   133  123  132 1   
   134  124  133 1   
   135  134  135 1   
   136  134  140 1   
   137  135  136 1   
   138  135  138 1   
   139  135  141 1   
   140  136  137 2   
   141  136  148 1   
   142  138  139 1   
   143  138  142 1   
   144  138  143 1   
   145  139  140 1   
   146  139  144 1   
   147  139  145 1   
   148  140  146 1   
   149  140  147 1   
   150  148  149 1   
   151  148  157 1   
   152  149  150 1   
   153  149  152 1   
   154  149  158 1   
   155  150  151 2   
   156  150  163 1   
   157  152  153 1   
   158  152  159 1   
   159  152  160 1   
   160  153  154 1   
   161  153  161 1   
   162  153  162 1   
   163  154  155 1   
   164  154  156 1   
   165  163  164 1   
   166  163  168 1   
   167  164  165 1   
   168  164  166 1   
   169  164  167 1   
   170  170  171 1   
   171  170  172 1   
   172  173  174 1   
   173  173  175 1   
   174  176  177 1   
   175  176  178 1   
   176  179  180 1   
   177  179  181 1   
   178  182  183 1   
   179  182  184 1   
@<TRIPOS>SUBSTRUCTURE
     1 MOL         1 TEMP              0 ****  ****    0 ROOT
