@<TRIPOS>MOLECULE
MOL
  187   181     1     0     0
SMALL
resp


@<TRIPOS>ATOM
      1 C1         10.6640    6.5490    1.7550 c3        1 MOL     -0.220681
      2 C2         10.3990    5.0350    2.1210 c         1 MOL      0.695362
      3 O1         10.2100    4.7800    3.3280 o         1 MOL     -0.603469
      4 H1         11.7240    6.7720    1.8770 hc        1 MOL      0.051977
      5 H2         10.3720    6.7300    0.7210 hc        1 MOL      0.051977
      6 H3         10.0800    7.1910    2.4150 hc        1 MOL      0.051977
      7 N1         10.2370    4.1120    1.1940 n         1 MOL     -0.608659
      8 C3         10.2270    4.4060   -0.2960 c3        1 MOL      0.166841
      9 C4         10.8230    3.2180   -1.1410 c         1 MOL      0.421127
     10 O2         11.4960    2.3140   -0.5990 o         1 MOL     -0.459635
     11 C5          8.7650    4.6440   -0.6800 c3        1 MOL     -0.342026
     12 C6          7.9320    3.4780   -0.3910 c         1 MOL      0.792189
     13 O3          7.3440    3.3710    0.6920 o         1 MOL     -0.708985
     14 O4          7.7230    2.6030   -1.2990 o         1 MOL     -0.708985
     15 H4         10.0390    3.1800    1.5170 hn        1 MOL      0.369238
     16 H5         10.8330    5.2950   -0.4900 h1        1 MOL      0.069285
     17 H6          8.7160    4.8550   -1.7470 hc        1 MOL      0.070270
     18 H7          8.4270    5.5070   -0.1040 hc        1 MOL      0.070270
     19 N2         10.6150    3.1850   -2.4630 n         1 MOL     -0.490614
     20 C7         11.0100    2.1480   -3.4290 c3        1 MOL      0.240689
     21 C8         10.6200    0.6680   -3.1450 c         1 MOL      0.495018
     22 O5         11.1750   -0.1560   -3.8630 o         1 MOL     -0.563813
     23 C9         12.4810    2.2800   -3.7900 c3        1 MOL     -0.372311
     24 H8         10.0380    3.9070   -2.8550 hn        1 MOL      0.284321
     25 H9         10.3530    2.2280   -4.2950 h1        1 MOL      0.026950
     26 H10        13.1680    1.9240   -3.0260 hc        1 MOL      0.101802
     27 H11        12.7570    1.6380   -4.6280 hc        1 MOL      0.101802
     28 H12        12.6950    3.3310   -3.9860 hc        1 MOL      0.101802
     29 N3          9.6340    0.4300   -2.3390 n         1 MOL     -0.349393
     30 C10         9.2190   -0.9800   -2.1230 c3        1 MOL      0.189921
     31 C11         7.6320   -1.2140   -2.0670 c         1 MOL      0.439152
     32 O6          6.9640   -0.2540   -1.7950 o         1 MOL     -0.479413
     33 C12         9.8300   -1.4700   -0.7940 c3        1 MOL     -0.184610
     34 C13         9.6710   -0.6650    0.5250 c         1 MOL      0.733110
     35 O7         10.4080   -1.0430    1.4950 o         1 MOL     -0.713417
     36 O8          8.8520    0.2450    0.7730 o         1 MOL     -0.713417
     37 H13         9.1040    1.2260   -1.9960 hn        1 MOL      0.210462
     38 H14         9.4860   -1.6030   -2.9730 h1        1 MOL     -0.006009
     39 H15        10.9130   -1.4110   -0.9280 hc        1 MOL      0.031681
     40 H16         9.5810   -2.5260   -0.6760 hc        1 MOL      0.031681
     41 N4          7.0490   -2.2880   -2.6630 n         1 MOL     -0.393633
     42 C14         5.6280   -2.5820   -2.8660 c3        1 MOL     -0.230156
     43 C15         4.8550   -3.4870   -1.8170 c         1 MOL      0.468865
     44 O9          3.7720   -3.9530   -2.0850 o         1 MOL     -0.523654
     45 H17         7.6770   -3.0600   -2.8210 hn        1 MOL      0.290262
     46 H18         5.6410   -3.1010   -3.8300 h1        1 MOL      0.144727
     47 H19         5.0770   -1.6470   -2.9430 h1        1 MOL      0.144727
     48 N5          5.5290   -3.8260   -0.7560 n         1 MOL     -0.139012
     49 C16         5.1510   -4.7950    0.2490 c3        1 MOL     -0.071439
     50 C17         3.9890   -4.1460    1.0640 c         1 MOL      0.469694
     51 O10         4.2640   -3.2340    1.8650 o         1 MOL     -0.506441
     52 C18         6.2970   -5.3960    1.1350 c3        1 MOL     -0.326904
     53 C19         7.4650   -5.8640    0.4210 c         1 MOL      0.586360
     54 N6          8.6340   -5.3570    0.6050 n         1 MOL     -0.617068
     55 O11         7.5210   -6.8200   -0.3620 o         1 MOL     -0.555688
     56 H20         6.4290   -3.4030   -0.5840 hn        1 MOL      0.203720
     57 H21         4.7930   -5.6880   -0.2570 h1        1 MOL      0.074168
     58 H22         5.8610   -6.2600    1.6350 hc        1 MOL      0.119067
     59 H23         6.5740   -4.7140    1.9440 hc        1 MOL      0.119067
     60 H24         8.8280   -4.7800    1.4150 hn        1 MOL      0.327113
     61 H25         9.4230   -5.8240    0.1730 hn        1 MOL      0.327113
     62 N7          2.7380   -4.5320    0.9090 n         1 MOL     -0.278295
     63 C20         1.5930   -3.9660    1.6460 c3        1 MOL     -0.336627
     64 C21         1.1600   -2.6180    1.0650 c         1 MOL      0.895562
     65 O12         1.6560   -2.1590    0.0800 o         1 MOL     -0.608676
     66 H26         2.5610   -5.2930    0.2640 hn        1 MOL      0.294325
     67 H27         1.8480   -3.9430    2.7130 h1        1 MOL      0.157097
     68 H28         0.7420   -4.5500    1.2920 h1        1 MOL      0.157097
     69 N8          0.1960   -1.9490    1.6330 n         1 MOL     -0.676886
     70 C22        -0.4620   -2.1840    2.9270 c3        1 MOL      0.004423
     71 C23        -1.9790   -2.0800    2.7500 c         1 MOL      0.564461
     72 O13        -2.6260   -2.0800    3.8480 o         1 MOL     -0.601392
     73 C24         0.1160   -1.3710    4.0770 c3        1 MOL      0.366023
     74 C25         1.5970   -1.7270    4.2950 c3        1 MOL     -0.272372
     75 O14         0.0710    0.0450    3.7540 oh        1 MOL     -0.613327
     76 H29        -0.0110   -1.0590    1.2110 hn        1 MOL      0.341958
     77 H30        -0.4110   -3.2570    3.1450 h1        1 MOL      0.054863
     78 H31        -0.4020   -1.6030    5.0080 h1        1 MOL      0.017357
     79 H32        -0.6120    0.4940    4.2740 ho        1 MOL      0.392122
     80 H33         1.6320   -2.7940    4.5170 hc        1 MOL      0.064130
     81 H34         2.1320   -1.5920    3.3520 hc        1 MOL      0.064130
     82 H35         1.9830   -1.1840    5.1540 hc        1 MOL      0.064130
     83 N9         -2.4960   -1.9030    1.5060 n         1 MOL     -0.450484
     84 C26        -3.9210   -1.8070    1.2140 c3        1 MOL      0.157781
     85 C27        -4.2140   -2.5620   -0.0820 c         1 MOL      0.400017
     86 O15        -3.3060   -2.8470   -0.8490 o         1 MOL     -0.547660
     87 C28        -4.2590   -0.2640    1.1780 c3        1 MOL      0.101939
     88 C29        -3.2460    0.7800    0.5310 c3        1 MOL     -0.186085
     89 C30        -4.5890    0.2480    2.5830 c3        1 MOL     -0.332541
     90 C31        -2.8160    0.5360   -0.8880 c3        1 MOL     -0.033573
     91 H36        -1.8590   -1.8040    0.7250 hn        1 MOL      0.272245
     92 H37        -4.4830   -2.2910    2.0190 h1        1 MOL      0.075438
     93 H38        -5.2110   -0.2500    0.6590 hc        1 MOL      0.019009
     94 H39        -2.3910    0.8530    1.2020 hc        1 MOL      0.053070
     95 H40        -3.6820    1.7820    0.5540 hc        1 MOL      0.053070
     96 H41        -3.6980    0.1780    3.2070 hc        1 MOL      0.075796
     97 H42        -4.8990    1.2840    2.6000 hc        1 MOL      0.075796
     98 H43        -5.4650   -0.3470    2.8600 hc        1 MOL      0.075796
     99 H44        -3.6180    0.6080   -1.6260 hc        1 MOL      0.017918
    100 H45        -2.1340    1.3460   -1.1410 hc        1 MOL      0.017918
    101 H46        -2.2230   -0.3750   -0.9920 hc        1 MOL      0.017918
    102 N10        -5.4570   -2.8330   -0.4960 n         1 MOL     -0.340248
    103 C32        -6.6960   -2.7490    0.2100 c3        1 MOL      0.151799
    104 C33        -7.6290   -1.7070   -0.4870 c         1 MOL      0.453356
    105 O16        -7.4110   -1.3090   -1.6810 o         1 MOL     -0.494194
    106 C34        -7.4050   -4.0980    0.3400 c3        1 MOL     -0.176750
    107 C35        -7.5650   -4.9450   -0.9040 c         1 MOL      0.761526
    108 O17        -7.0030   -4.5840   -2.0030 o         1 MOL     -0.729865
    109 O18        -8.1820   -6.0210   -0.7570 o         1 MOL     -0.729865
    110 H47        -5.5130   -3.0780   -1.4710 hn        1 MOL      0.318627
    111 H48        -6.5130   -2.3450    1.2070 h1        1 MOL     -0.005863
    112 H49        -8.4440   -3.9510    0.6600 hc        1 MOL     -0.004611
    113 H50        -6.8430   -4.7410    1.0080 hc        1 MOL     -0.004611
    114 N11        -8.6390   -1.2810    0.2570 n         1 MOL     -0.521960
    115 C36        -9.8510   -0.6370   -0.3320 c3        1 MOL      0.227055
    116 C37       -10.7220    0.0420    0.7390 c         1 MOL      0.302478
    117 O19       -10.9570   -0.6200    1.7840 o         1 MOL     -0.536801
    118 C38       -10.7210   -1.7180   -1.0610 c3        1 MOL     -0.133824
    119 C39       -12.0820   -1.2600   -1.6430 ca        1 MOL      0.056180
    120 C40       -13.2920   -1.3260   -0.9080 ca        1 MOL     -0.179201
    121 C41       -12.1260   -0.7600   -2.9550 ca        1 MOL     -0.179201
    122 C42       -14.4960   -0.7930   -1.5050 ca        1 MOL     -0.055741
    123 C43       -13.3370   -0.1750   -3.4400 ca        1 MOL     -0.055741
    124 C44       -14.5450   -0.2580   -2.7420 ca        1 MOL     -0.180242
    125 H51        -8.6840   -1.3890    1.2610 hn        1 MOL      0.315729
    126 H52        -9.4570    0.0570   -1.0760 h1        1 MOL      0.038536
    127 H53       -11.0000   -2.4730   -0.3260 hc        1 MOL      0.093682
    128 H54       -10.1170   -2.2570   -1.7930 hc        1 MOL      0.093682
    129 H55       -13.3310   -1.7120    0.0960 ha        1 MOL      0.134959
    130 H56       -11.2000   -0.6310   -3.4930 ha        1 MOL      0.134959
    131 H57       -15.3510   -0.7140   -0.8480 ha        1 MOL      0.081744
    132 H58       -13.2130    0.4040   -4.3440 ha        1 MOL      0.081744
    133 H59       -15.3830    0.3270   -3.0970 ha        1 MOL      0.113685
    134 N12       -11.3310    1.2500    0.5530 n         1 MOL      0.008096
    135 C45       -11.2140    2.0880   -0.6430 c3        1 MOL      0.140039
    136 C46        -9.8830    2.9070   -0.8350 c         1 MOL      0.246866
    137 O20        -9.6670    3.4930   -1.9190 o         1 MOL     -0.487662
    138 C47       -12.4280    3.0600   -0.5930 c3        1 MOL     -0.122372
    139 C48       -13.4170    2.3430    0.3470 c3        1 MOL     -0.127624
    140 C49       -12.5040    1.6480    1.3420 c3        1 MOL      0.014322
    141 H60       -11.3470    1.5370   -1.5660 h1        1 MOL      0.077005
    142 H61       -12.1440    4.0610   -0.2660 hc        1 MOL      0.060125
    143 H62       -12.8070    3.0400   -1.6110 hc        1 MOL      0.060125
    144 H63       -13.8630    3.1780    0.8950 hc        1 MOL      0.040359
    145 H64       -14.1070    1.6580   -0.1400 hc        1 MOL      0.040359
    146 H65       -12.1840    2.1700    2.2420 h1        1 MOL      0.036889
    147 H66       -13.0730    0.8160    1.7540 h1        1 MOL      0.036889
    148 N13        -9.0360    2.9910    0.2050 n         1 MOL     -0.358150
    149 C50        -7.8890    3.9460    0.2910 c3        1 MOL      0.364493
    150 C51        -7.9640    4.8600    1.5870 c         1 MOL      0.441334
    151 O21        -8.5870    4.4770    2.4750 o         1 MOL     -0.578101
    152 C52        -6.5330    3.2140    0.3480 c3        1 MOL     -0.317098
    153 C53        -6.2300    2.4900   -0.9680 c3        1 MOL      0.042005
    154 C54        -5.7490    3.3760   -2.1560 c         1 MOL      0.706840
    155 O22        -5.1000    2.7430   -2.9890 o         1 MOL     -0.716697
    156 O23        -6.0460    4.5970   -2.1950 o         1 MOL     -0.716697
    157 H67        -9.3100    2.5000    1.0470 hn        1 MOL      0.182925
    158 H68        -7.8250    4.6290   -0.5520 h1        1 MOL      0.046071
    159 H69        -6.5790    2.4580    1.1270 hc        1 MOL      0.061578
    160 H70        -5.7290    3.9220    0.5310 hc        1 MOL      0.061578
    161 H71        -7.1070    1.9510   -1.3150 hc        1 MOL      0.014318
    162 H72        -5.4590    1.7780   -0.6890 hc        1 MOL      0.014318
    163 N14        -7.3810    6.0000    1.7130 n         1 MOL     -0.415124
    164 C55        -6.7100    6.7360    0.5830 c3        1 MOL     -0.005771
    165 H73        -5.6970    7.0060    0.8760 h1        1 MOL      0.038094
    166 H74        -6.6750    6.0950   -0.2990 h1        1 MOL      0.038094
    167 H75        -7.2740    7.6410    0.3520 h1        1 MOL      0.038094
    168 H76        -7.6450    6.4780    2.5560 hn        1 MOL      0.276103
    169 Ca1         6.3260    0.9780    0.4130 Ca        1 MOL      1.702984
    170 O24         6.9890    1.9130    2.9190 oh        1 MOL     -0.806499
    171 H77         7.3520    2.7840    2.7630 ho        1 MOL      0.397128
    172 H78         6.4690    2.0110    3.7250 ho        1 MOL      0.397128
    173 O25         4.7980    2.2050   -1.4990 oh        1 MOL     -0.806499
    174 H79         3.8430    2.2550   -1.5260 ho        1 MOL      0.397128
    175 H80         5.0870    3.0130   -1.9280 ho        1 MOL      0.397128
    176 O26         4.7120   -0.1420    2.5140 oh        1 MOL     -0.806499
    177 H81         4.7160   -0.8450    3.1690 ho        1 MOL      0.397128
    178 H82         3.8350    0.2260    2.5520 ho        1 MOL      0.397128
    179 O27         6.7570   -1.9060    0.9420 oh        1 MOL     -0.806499
    180 H83         5.9090   -2.0660    1.3410 ho        1 MOL      0.397128
    181 H84         7.3710   -1.8840    1.6800 ho        1 MOL      0.397128
    182 O28         3.9470   -0.5300   -0.4570 oh        1 MOL     -0.806499
    183 H85         3.3380   -1.2670   -0.3580 ho        1 MOL      0.397128
    184 H86         3.5500    0.0030   -1.1410 ho        1 MOL      0.397128
    185 O29         4.4410    2.5750    1.4560 oh        1 MOL     -0.806499
    186 H87         4.2190    3.3160    0.8770 ho        1 MOL      0.397128
    187 H88         3.6010    2.3350    1.8540 ho        1 MOL      0.397128
@<TRIPOS>BOND
     1    1    2 1   
     2    1    4 1   
     3    1    5 1   
     4    1    6 1   
     5    2    3 2   
     6    2    7 1   
     7    7    8 1   
     8    7   15 1   
     9    8    9 1   
    10    8   11 1   
    11    8   16 1   
    12    9   10 2   
    13    9   19 1   
    14   11   12 1   
    15   11   17 1   
    16   11   18 1   
    17   12   13 1   
    18   12   14 1   
    19   19   20 1   
    20   19   24 1   
    21   20   21 1   
    22   20   23 1   
    23   20   25 1   
    24   21   22 2   
    25   21   29 1   
    26   23   26 1   
    27   23   27 1   
    28   23   28 1   
    29   29   30 1   
    30   29   37 1   
    31   30   31 1   
    32   30   33 1   
    33   30   38 1   
    34   31   32 2   
    35   31   41 1   
    36   33   34 1   
    37   33   39 1   
    38   33   40 1   
    39   34   35 1   
    40   34   36 1   
    41   41   42 1   
    42   41   45 1   
    43   42   43 1   
    44   42   46 1   
    45   42   47 1   
    46   43   44 2   
    47   43   48 1   
    48   48   49 1   
    49   48   56 1   
    50   49   50 1   
    51   49   52 1   
    52   49   57 1   
    53   50   51 2   
    54   50   62 1   
    55   52   53 1   
    56   52   58 1   
    57   52   59 1   
    58   53   54 1   
    59   53   55 2   
    60   54   60 1   
    61   54   61 1   
    62   62   63 1   
    63   62   66 1   
    64   63   64 1   
    65   63   67 1   
    66   63   68 1   
    67   64   65 2   
    68   64   69 1   
    69   69   70 1   
    70   69   76 1   
    71   70   71 1   
    72   70   73 1   
    73   70   77 1   
    74   71   72 2   
    75   71   83 1   
    76   73   74 1   
    77   73   75 1   
    78   73   78 1   
    79   74   80 1   
    80   74   81 1   
    81   74   82 1   
    82   75   79 1   
    83   83   84 1   
    84   83   91 1   
    85   84   85 1   
    86   84   87 1   
    87   84   92 1   
    88   85   86 2   
    89   85  102 1   
    90   87   88 1   
    91   87   89 1   
    92   87   93 1   
    93   88   90 1   
    94   88   94 1   
    95   88   95 1   
    96   89   96 1   
    97   89   97 1   
    98   89   98 1   
    99   90   99 1   
   100   90  100 1   
   101   90  101 1   
   102  102  103 1   
   103  102  110 1   
   104  103  104 1   
   105  103  106 1   
   106  103  111 1   
   107  104  105 2   
   108  104  114 1   
   109  106  107 1   
   110  106  112 1   
   111  106  113 1   
   112  107  108 1   
   113  107  109 1   
   114  114  115 1   
   115  114  125 1   
   116  115  116 1   
   117  115  118 1   
   118  115  126 1   
   119  116  117 2   
   120  116  134 1   
   121  118  119 1   
   122  118  127 1   
   123  118  128 1   
   124  119  120 ar  
   125  119  121 ar  
   126  120  122 ar  
   127  120  129 1   
   128  121  123 ar  
   129  121  130 1   
   130  122  124 ar  
   131  122  131 1   
   132  123  124 ar  
   133  123  132 1   
   134  124  133 1   
   135  134  135 1   
   136  134  140 1   
   137  135  136 1   
   138  135  138 1   
   139  135  141 1   
   140  136  137 2   
   141  136  148 1   
   142  138  139 1   
   143  138  142 1   
   144  138  143 1   
   145  139  140 1   
   146  139  144 1   
   147  139  145 1   
   148  140  146 1   
   149  140  147 1   
   150  148  149 1   
   151  148  157 1   
   152  149  150 1   
   153  149  152 1   
   154  149  158 1   
   155  150  151 2   
   156  150  163 1   
   157  152  153 1   
   158  152  159 1   
   159  152  160 1   
   160  153  154 1   
   161  153  161 1   
   162  153  162 1   
   163  154  155 1   
   164  154  156 1   
   165  163  164 1   
   166  163  168 1   
   167  164  165 1   
   168  164  166 1   
   169  164  167 1   
   170  170  171 1   
   171  170  172 1   
   172  173  174 1   
   173  173  175 1   
   174  176  177 1   
   175  176  178 1   
   176  179  180 1   
   177  179  181 1   
   178  182  183 1   
   179  182  184 1   
   180  185  186 1   
   181  185  187 1   
@<TRIPOS>SUBSTRUCTURE
     1 MOL         1 TEMP              0 ****  ****    0 ROOT
