@<TRIPOS>MOLECULE
MOL
  191   184     1     0     0
SMALL
resp


@<TRIPOS>ATOM
      1 C1         -6.9000   -1.5460    3.2110 c3        1 MOL     -0.371456
      2 C2         -7.2190   -1.3150    1.7030 c         1 MOL      0.543163
      3 O1         -6.3700   -0.7630    0.9440 o         1 MOL     -0.496559
      4 H1         -5.9290   -1.1100    3.4470 hc        1 MOL      0.096568
      5 H2         -7.6690   -1.0730    3.8230 hc        1 MOL      0.096568
      6 H3         -6.8780   -2.6160    3.4180 hc        1 MOL      0.096568
      7 N1         -8.3560   -1.7360    1.2240 n         1 MOL     -0.427040
      8 C3         -8.7670   -1.7860   -0.1300 c3        1 MOL      0.129231
      9 C4         -8.5270   -0.4460   -0.9770 c         1 MOL      0.445734
     10 O2         -7.9880   -0.3710   -2.1160 o         1 MOL     -0.435659
     11 C5         -8.0750   -2.9530   -0.7890 c3        1 MOL     -0.410959
     12 C6         -8.7530   -3.3910   -2.0720 c         1 MOL      0.724644
     13 O3         -8.1420   -4.1840   -2.8640 o         1 MOL     -0.636531
     14 O4         -9.9400   -3.1310   -2.2780 o         1 MOL     -0.636531
     15 H4         -8.9310   -2.2570    1.8690 hn        1 MOL      0.303062
     16 H5         -9.8360   -1.9740   -0.0160 h1        1 MOL      0.053381
     17 H6         -8.3790   -3.8230   -0.1970 hc        1 MOL      0.129124
     18 H7         -6.9930   -2.9020   -0.8820 hc        1 MOL      0.129124
     19 N2         -8.8470    0.6840   -0.3380 n         1 MOL     -0.363297
     20 C7         -8.7310    2.0510   -0.8380 c3        1 MOL     -0.104484
     21 C8         -7.2850    2.4470   -1.1880 c         1 MOL      0.516955
     22 O5         -7.0610    3.5580   -1.6780 o         1 MOL     -0.574896
     23 C9         -9.2960    3.0020    0.2600 c3        1 MOL      0.028121
     24 C10        -8.5200    3.0070    1.5450 c3        1 MOL      0.292044
     25 C11        -9.1290    4.1180    2.4150 c3        1 MOL     -0.259223
     26 C12        -8.2240    4.4300    3.6280 c3        1 MOL     -0.038412
     27 N3         -8.4050    3.3440    4.7100 n4        1 MOL     -0.272078
     28 H8         -9.0940    0.5280    0.6240 hn        1 MOL      0.182637
     29 H9         -9.3890    2.1400   -1.7080 h1        1 MOL      0.156593
     30 H10       -10.3470    2.7890    0.4500 hc        1 MOL      0.007963
     31 H11        -9.4020    4.0290   -0.1040 hc        1 MOL      0.007963
     32 H12        -7.4700    3.2360    1.3950 hc        1 MOL     -0.065875
     33 H13        -8.6360    2.0530    2.0620 hc        1 MOL     -0.065875
     34 H14       -10.1780    4.0170    2.6740 hc        1 MOL      0.105125
     35 H15        -9.0170    4.9770    1.7640 hc        1 MOL      0.105125
     36 H16        -8.4310    5.4070    4.0550 hx        1 MOL      0.113546
     37 H17        -7.1580    4.4730    3.3810 hx        1 MOL      0.113546
     38 H18        -8.0070    3.6240    5.5950 hn        1 MOL      0.218846
     39 H19        -9.3980    3.3630    4.8920 hn        1 MOL      0.218846
     40 H20        -8.0280    2.4480    4.4510 hn        1 MOL      0.218846
     41 N4         -6.2930    1.7200   -0.7000 n         1 MOL     -0.205112
     42 C13        -4.8890    2.0860   -0.6330 c3        1 MOL      0.004148
     43 C14        -4.3240    2.1950   -2.0660 c         1 MOL      0.542580
     44 O6         -4.7520    1.4400   -2.9780 o         1 MOL     -0.442498
     45 C15        -4.1110    1.1280    0.2850 c3        1 MOL     -0.219900
     46 C16        -2.6330    1.4360    0.4170 c         1 MOL      0.732899
     47 O7         -2.1140    1.8140    1.4940 o         1 MOL     -0.729492
     48 O8         -1.8470    1.1520   -0.5530 o         1 MOL     -0.729492
     49 H21        -6.6190    0.8590   -0.2770 hn        1 MOL      0.150835
     50 H22        -4.8190    3.0870   -0.2250 h1        1 MOL      0.020208
     51 H23        -4.1080    0.1600   -0.1930 hc        1 MOL      0.062858
     52 H24        -4.6170    0.9870    1.2380 hc        1 MOL      0.062858
     53 N5         -3.3020    3.0570   -2.3020 n         1 MOL     -0.457830
     54 C17        -2.6870    3.3660   -3.6150 c3        1 MOL      0.124552
     55 C18        -1.9370    2.1300   -4.2300 c         1 MOL      0.384287
     56 O9         -1.8320    1.8950   -5.4340 o         1 MOL     -0.538071
     57 H25        -3.1990    3.6690   -1.5010 hn        1 MOL      0.277272
     58 H26        -1.9390    4.1560   -3.4970 h1        1 MOL      0.030775
     59 H27        -3.4370    3.8080   -4.2670 h1        1 MOL      0.030775
     60 N6         -1.4350    1.1830   -3.4370 n         1 MOL     -0.070011
     61 C19        -0.8730   -0.1110   -3.8790 c3        1 MOL     -0.052385
     62 C20        -1.5460   -1.2470   -3.1460 c         1 MOL      0.447821
     63 O10        -1.0260   -2.3620   -3.1930 o         1 MOL     -0.511812
     64 C21         0.6520   -0.0730   -3.8480 c3        1 MOL     -0.605517
     65 C22         1.3470    0.0070   -2.5010 c         1 MOL      0.525213
     66 N7          2.6390    0.0340   -2.4900 n         1 MOL     -0.588542
     67 O11         0.7670    0.1730   -1.4570 o         1 MOL     -0.393640
     68 H28        -1.5120    1.3260   -2.4400 hn        1 MOL      0.062543
     69 H29        -1.2410   -0.2790   -4.8940 h1        1 MOL      0.162369
     70 H30         1.0950    0.6120   -4.5670 hc        1 MOL      0.225690
     71 H31         1.0650   -1.0400   -4.1580 hc        1 MOL      0.225690
     72 H32         3.0760    0.1510   -3.3920 hn        1 MOL      0.292185
     73 H33         3.0470    0.1810   -1.5770 hn        1 MOL      0.292185
     74 N8         -2.7150   -0.9980   -2.5050 n         1 MOL     -0.098688
     75 C23        -3.5820   -2.0970   -2.0270 c3        1 MOL     -0.217547
     76 C24        -3.0100   -2.7050   -0.6860 c         1 MOL      0.614186
     77 O12        -3.2010   -3.9080   -0.4520 o         1 MOL     -0.555658
     78 H34        -3.1040   -0.0710   -2.5220 hn        1 MOL      0.093761
     79 H35        -3.5170   -2.9230   -2.7420 h1        1 MOL      0.141008
     80 H36        -4.5620   -1.6360   -1.9400 h1        1 MOL      0.141008
     81 N9         -2.1380   -2.0170    0.0290 n         1 MOL     -0.451747
     82 C25        -1.3120   -2.5260    1.1190 c3        1 MOL      0.057881
     83 C26         0.1370   -1.8930    1.1190 c         1 MOL      0.408765
     84 O13         0.2760   -0.6120    1.1350 o         1 MOL     -0.643776
     85 C27        -1.9530   -2.0000    2.3840 c3        1 MOL     -0.385135
     86 C28        -1.1480   -2.2190    3.6970 ca        1 MOL     -0.020332
     87 C29        -1.0370   -3.4370    4.3540 ca        1 MOL     -0.042762
     88 C30        -0.7630   -1.0630    4.3870 ca        1 MOL     -0.042762
     89 C31        -0.5360   -3.5540    5.6430 ca        1 MOL     -0.361228
     90 C32        -0.4180   -1.1440    5.7470 ca        1 MOL     -0.361228
     91 C33        -0.2160   -2.3910    6.3750 ca        1 MOL      0.416433
     92 O14         0.3770   -2.4490    7.5660 oh        1 MOL     -0.491319
     93 H37        -1.9100   -1.1240   -0.3810 hn        1 MOL      0.303545
     94 H38        -1.2980   -3.6120    1.0210 h1        1 MOL      0.096223
     95 H39        -2.9700   -2.3590    2.5550 hc        1 MOL      0.179799
     96 H40        -2.1210   -0.9240    2.3670 hc        1 MOL      0.179799
     97 H41        -1.1920   -4.3390    3.7790 ha        1 MOL      0.120729
     98 H42        -0.9620   -0.1220    3.9080 ha        1 MOL      0.120729
     99 H43        -0.3870   -4.5160    6.1120 ha        1 MOL      0.166353
    100 H44        -0.2180   -0.2000    6.2380 ha        1 MOL      0.166353
    101 H45         0.6110   -1.6330    8.0110 ho        1 MOL      0.375128
    102 N10         1.0790   -2.8210    1.0990 n         1 MOL     -0.251578
    103 C34         2.4950   -2.5240    1.3000 c3        1 MOL     -0.078268
    104 C35         3.1650   -2.4280   -0.0650 c         1 MOL      0.372061
    105 O15         4.0030   -1.5460   -0.2790 o         1 MOL     -0.603412
    106 C36         3.2400   -3.4070    2.2950 c3        1 MOL     -0.022361
    107 C37         2.6360   -3.1120    3.6340 c3        1 MOL     -0.251756
    108 C38         4.7620   -3.3350    2.2330 c3        1 MOL     -0.158319
    109 C39         2.9140   -1.7700    4.3050 c3        1 MOL      0.003265
    110 H46         0.7220   -3.7670    1.2020 hn        1 MOL      0.264746
    111 H47         2.5820   -1.5050    1.6870 h1        1 MOL      0.265403
    112 H48         3.0110   -4.4540    2.0700 hc        1 MOL      0.029788
    113 H49         3.0890   -3.8250    4.3200 hc        1 MOL      0.110864
    114 H50         1.5620   -3.3020    3.6560 hc        1 MOL      0.110864
    115 H51         5.1940   -2.3450    2.3390 hc        1 MOL      0.067881
    116 H52         5.1640   -4.0230    2.9900 hc        1 MOL      0.067881
    117 H53         5.1130   -3.8100    1.3130 hc        1 MOL      0.067881
    118 H54         2.0990   -1.3540    4.8900 hc        1 MOL      0.001948
    119 H55         3.7680   -1.8760    4.9710 hc        1 MOL      0.001948
    120 H56         3.2010   -1.0730    3.5180 hc        1 MOL      0.001948
    121 N11         2.7600   -3.3110   -1.0270 n         1 MOL     -0.212891
    122 C40         3.3090   -3.3650   -2.4140 c3        1 MOL      0.106419
    123 C41         4.8360   -3.3850   -2.5320 c         1 MOL      0.283740
    124 O16         5.4030   -2.8670   -3.4630 o         1 MOL     -0.477570
    125 C42         2.7140   -4.4950   -3.2380 c3        1 MOL      0.186787
    126 O17         1.3280   -4.4440   -3.3110 oh        1 MOL     -0.558663
    127 H57         1.9470   -3.8710   -0.8100 hn        1 MOL      0.200323
    128 H58         3.0510   -2.4580   -2.9750 h1        1 MOL      0.089237
    129 H59         3.0400   -5.4170   -2.7630 h1        1 MOL      0.007082
    130 H60         3.0930   -4.3980   -4.2580 h1        1 MOL      0.007082
    131 H61         1.0340   -5.3420   -3.4880 ho        1 MOL      0.405825
    132 N12         5.5050   -3.9570   -1.5810 n         1 MOL     -0.306249
    133 C43         6.9220   -3.7030   -1.2820 c3        1 MOL      0.233208
    134 C44         7.4190   -2.2190   -1.3740 c         1 MOL      0.473285
    135 O18         8.6580   -2.0890   -1.2890 o         1 MOL     -0.558757
    136 C45         7.7460   -4.6220   -2.2010 c3        1 MOL     -0.220153
    137 H62         4.9570   -4.3970   -0.8490 hn        1 MOL      0.185908
    138 H63         7.0970   -3.9450   -0.2360 h1        1 MOL      0.031742
    139 H64         8.7610   -4.7250   -1.8290 hc        1 MOL      0.066735
    140 H65         7.3490   -5.6390   -2.2100 hc        1 MOL      0.066735
    141 H66         7.7360   -4.2700   -3.2330 hc        1 MOL      0.066735
    142 N13         6.6740   -1.1390   -1.3780 n         1 MOL     -0.477568
    143 C46         7.2290    0.2530   -1.5630 c3        1 MOL      0.189976
    144 C47         7.5710    0.9530   -0.2300 c         1 MOL      0.526390
    145 O19         7.0810    0.5900    0.8360 o         1 MOL     -0.521645
    146 C48         6.1660    1.0530   -2.3370 c3        1 MOL     -0.060040
    147 H67         5.6620   -1.1880   -1.3830 hn        1 MOL      0.335340
    148 H68         8.0570    0.1000   -2.2470 h1        1 MOL      0.067311
    149 H69         5.9390    0.4010   -3.1810 hc        1 MOL      0.009364
    150 H70         5.2030    1.0420   -1.8380 hc        1 MOL      0.009364
    151 H71         6.5490    2.0340   -2.6290 hc        1 MOL      0.009364
    152 N14         8.5100    1.8980   -0.3590 n         1 MOL     -0.480374
    153 C49         9.0920    2.8310    0.6400 c3        1 MOL     -0.011175
    154 C50         9.7920    2.1850    1.8660 c         1 MOL      0.326039
    155 O20         9.9330    2.8780    2.8610 o         1 MOL     -0.467890
    156 C51         8.1430    3.9190    1.1440 c3        1 MOL      0.185582
    157 C52         7.3080    4.6200    0.0580 c3        1 MOL     -0.228072
    158 C53         8.3150    5.3780   -0.8700 c         1 MOL      0.655447
    159 O21         8.4310    5.0370   -2.0790 o         1 MOL     -0.638181
    160 O22         9.0790    6.2670   -0.4850 o         1 MOL     -0.638181
    161 H72         9.0510    1.7740   -1.2000 hn        1 MOL      0.261730
    162 H73         9.8320    3.3570    0.0380 h1        1 MOL      0.136931
    163 H74         8.7270    4.6880    1.6350 hc        1 MOL     -0.006055
    164 H75         7.4450    3.4720    1.8520 hc        1 MOL     -0.006055
    165 H76         6.7010    5.3240    0.6210 hc        1 MOL     -0.008261
    166 H77         6.6820    3.8980   -0.4690 hc        1 MOL     -0.008261
    167 N15        10.1390    0.8420    1.9340 n         1 MOL     -0.174279
    168 C54        10.6170    0.1020    3.1310 c3        1 MOL     -0.243777
    169 H78        11.5060    0.5910    3.5290 h1        1 MOL      0.108115
    170 H79         9.8350    0.0940    3.8900 h1        1 MOL      0.108115
    171 H80        10.8620   -0.9230    2.8510 h1        1 MOL      0.108115
    172 H81        10.0950    0.3260    1.0760 hn        1 MOL      0.202201
    173 Ca1         0.3490    2.0490    0.5610 Ca        1 MOL      1.788697
    174 O23         2.0820    4.2660    0.2780 oh        1 MOL     -0.790581
    175 H82         2.7870    4.6550    0.8010 ho        1 MOL      0.392539
    176 H83         2.2130    4.6210   -0.6000 ho        1 MOL      0.392539
    177 O24         0.8000    3.0850   -2.0950 oh        1 MOL     -0.790581
    178 H84         0.7270    4.0200   -2.2610 ho        1 MOL      0.392539
    179 H85         1.4180    2.7650   -2.7480 ho        1 MOL      0.392539
    180 O25        -1.0870    4.3930   -0.2900 oh        1 MOL     -0.790581
    181 H86        -0.6490    4.6000   -1.1190 ho        1 MOL      0.392539
    182 H87        -1.5230    5.2040   -0.0460 ho        1 MOL      0.392539
    183 O26         3.0560    1.4380   -0.1490 oh        1 MOL     -0.790581
    184 H88         3.6930    1.2370    0.5420 ho        1 MOL      0.392539
    185 H89         3.4270    2.2030   -0.5870 ho        1 MOL      0.392539
    186 O27        -0.1290    3.4630    2.8580 oh        1 MOL     -0.790581
    187 H90        -0.4760    4.3540    2.8040 ho        1 MOL      0.392539
    188 H91        -0.5160    3.0910    3.6480 ho        1 MOL      0.392539
    189 O28         1.9600    1.4030    2.5820 oh        1 MOL     -0.790581
    190 H92         2.7980    1.0290    2.3080 ho        1 MOL      0.392539
    191 H93         2.0010    1.4210    3.5290 ho        1 MOL      0.392539
@<TRIPOS>BOND
     1    1    2 1   
     2    1    4 1   
     3    1    5 1   
     4    1    6 1   
     5    2    3 2   
     6    2    7 1   
     7    7    8 1   
     8    7   15 1   
     9    8    9 1   
    10    8   11 1   
    11    8   16 1   
    12    9   10 2   
    13    9   19 1   
    14   11   12 1   
    15   11   17 1   
    16   11   18 1   
    17   12   13 1   
    18   12   14 1   
    19   19   20 1   
    20   19   28 1   
    21   20   21 1   
    22   20   23 1   
    23   20   29 1   
    24   21   22 2   
    25   21   41 1   
    26   23   24 1   
    27   23   30 1   
    28   23   31 1   
    29   24   25 1   
    30   24   32 1   
    31   24   33 1   
    32   25   26 1   
    33   25   34 1   
    34   25   35 1   
    35   26   27 1   
    36   26   36 1   
    37   26   37 1   
    38   27   38 1   
    39   27   39 1   
    40   27   40 1   
    41   41   42 1   
    42   41   49 1   
    43   42   43 1   
    44   42   45 1   
    45   42   50 1   
    46   43   44 2   
    47   43   53 1   
    48   45   46 1   
    49   45   51 1   
    50   45   52 1   
    51   46   47 1   
    52   46   48 1   
    53   53   54 1   
    54   53   57 1   
    55   54   55 1   
    56   54   58 1   
    57   54   59 1   
    58   55   56 2   
    59   55   60 1   
    60   60   61 1   
    61   60   68 1   
    62   61   62 1   
    63   61   64 1   
    64   61   69 1   
    65   62   63 2   
    66   62   74 1   
    67   64   65 1   
    68   64   70 1   
    69   64   71 1   
    70   65   66 1   
    71   65   67 2   
    72   66   72 1   
    73   66   73 1   
    74   74   75 1   
    75   74   78 1   
    76   75   76 1   
    77   75   79 1   
    78   75   80 1   
    79   76   77 2   
    80   76   81 1   
    81   81   82 1   
    82   81   93 1   
    83   82   83 1   
    84   82   85 1   
    85   82   94 1   
    86   83   84 2   
    87   83  102 1   
    88   85   86 1   
    89   85   95 1   
    90   85   96 1   
    91   86   87 ar  
    92   86   88 ar  
    93   87   89 ar  
    94   87   97 1   
    95   88   90 ar  
    96   88   98 1   
    97   89   91 ar  
    98   89   99 1   
    99   90   91 ar  
   100   90  100 1   
   101   91   92 1   
   102   92  101 1   
   103  102  103 1   
   104  102  110 1   
   105  103  104 1   
   106  103  106 1   
   107  103  111 1   
   108  104  105 2   
   109  104  121 1   
   110  106  107 1   
   111  106  108 1   
   112  106  112 1   
   113  107  109 1   
   114  107  113 1   
   115  107  114 1   
   116  108  115 1   
   117  108  116 1   
   118  108  117 1   
   119  109  118 1   
   120  109  119 1   
   121  109  120 1   
   122  121  122 1   
   123  121  127 1   
   124  122  123 1   
   125  122  125 1   
   126  122  128 1   
   127  123  124 2   
   128  123  132 1   
   129  125  126 1   
   130  125  129 1   
   131  125  130 1   
   132  126  131 1   
   133  132  133 1   
   134  132  137 1   
   135  133  134 1   
   136  133  136 1   
   137  133  138 1   
   138  134  135 2   
   139  134  142 1   
   140  136  139 1   
   141  136  140 1   
   142  136  141 1   
   143  142  143 1   
   144  142  147 1   
   145  143  144 1   
   146  143  146 1   
   147  143  148 1   
   148  144  145 2   
   149  144  152 1   
   150  146  149 1   
   151  146  150 1   
   152  146  151 1   
   153  152  153 1   
   154  152  161 1   
   155  153  154 1   
   156  153  156 1   
   157  153  162 1   
   158  154  155 2   
   159  154  167 1   
   160  156  157 1   
   161  156  163 1   
   162  156  164 1   
   163  157  158 1   
   164  157  165 1   
   165  157  166 1   
   166  158  159 1   
   167  158  160 1   
   168  167  168 1   
   169  167  172 1   
   170  168  169 1   
   171  168  170 1   
   172  168  171 1   
   173  174  175 1   
   174  174  176 1   
   175  177  178 1   
   176  177  179 1   
   177  180  181 1   
   178  180  182 1   
   179  183  184 1   
   180  183  185 1   
   181  186  187 1   
   182  186  188 1   
   183  189  190 1   
   184  189  191 1   
@<TRIPOS>SUBSTRUCTURE
     1 MOL         1 TEMP              0 ****  ****    0 ROOT
