@<TRIPOS>MOLECULE
MOL
  182   178     1     0     0
SMALL
resp


@<TRIPOS>ATOM
      1 C1          0.6020   -2.5340    6.5220 c3        1 MOL     -0.485665
      2 C2          0.6550   -2.7670    5.0520 c         1 MOL      0.760401
      3 O1         -0.4090   -2.8960    4.3980 o         1 MOL     -0.592980
      4 H1          1.5970   -2.6660    6.9470 hc        1 MOL      0.136353
      5 H2          0.2550   -1.5190    6.7170 hc        1 MOL      0.136353
      6 H3         -0.0850   -3.2470    6.9790 hc        1 MOL      0.136353
      7 N1          1.8680   -2.9000    4.4950 n         1 MOL     -0.517865
      8 C3          2.1590   -2.7340    3.1070 c3        1 MOL     -0.065190
      9 C4          2.2280   -4.0410    2.3240 c         1 MOL      0.629172
     10 O2          2.8730   -4.9750    2.7680 o         1 MOL     -0.563720
     11 C5          3.4460   -1.9830    2.8700 c3        1 MOL     -0.098226
     12 C6          3.5820   -1.3600    1.4230 c         1 MOL      0.281148
     13 O3          4.1220   -0.2590    1.2790 o         1 MOL     -0.522485
     14 O4          3.0350   -1.9200    0.4400 o         1 MOL     -0.522485
     15 H4          2.6570   -2.8020    5.1150 hn        1 MOL      0.308983
     16 H5          1.3630   -2.0740    2.7880 h1        1 MOL      0.112325
     17 H6          4.3330   -2.5570    3.1590 hc        1 MOL      0.075491
     18 H7          3.4210   -1.1240    3.5400 hc        1 MOL      0.075491
     19 N2          1.7020   -4.1500    1.1060 n         1 MOL     -0.506051
     20 C7          1.5020   -5.3890    0.2500 c3        1 MOL      0.019042
     21 C8          2.5280   -5.5400   -0.8780 c         1 MOL      0.428444
     22 O5          2.5620   -6.5880   -1.5470 o         1 MOL     -0.569668
     23 C9         -0.0140   -5.3240   -0.1100 c3        1 MOL      0.189315
     24 C10        -0.6150   -6.5190   -0.8690 c3        1 MOL     -0.464236
     25 C11        -2.1840   -6.4050   -0.8370 c3        1 MOL      0.092626
     26 C12        -2.7040   -7.7510   -1.3470 c3        1 MOL     -0.041989
     27 N3         -4.2120   -7.6720   -1.3370 n4        1 MOL     -0.250989
     28 H8          1.5190   -3.2900    0.6160 hn        1 MOL      0.358843
     29 H9          1.5680   -6.3020    0.8310 h1        1 MOL      0.100150
     30 H10        -0.1620   -4.3970   -0.6710 hc        1 MOL      0.024612
     31 H11        -0.5470   -5.3180    0.8430 hc        1 MOL      0.024612
     32 H12        -0.4040   -7.4580   -0.3720 hc        1 MOL      0.135126
     33 H13        -0.2420   -6.5870   -1.8960 hc        1 MOL      0.135126
     34 H14        -2.5840   -5.5440   -1.3820 hc        1 MOL      0.046809
     35 H15        -2.5240   -6.2750    0.1870 hc        1 MOL      0.046809
     36 H16        -2.4150   -8.5370   -0.6430 hx        1 MOL      0.103389
     37 H17        -2.2680   -7.9150   -2.3250 hx        1 MOL      0.103389
     38 H18        -4.6020   -7.1990   -2.1480 hn        1 MOL      0.254892
     39 H19        -4.5830   -8.6080   -1.3960 hn        1 MOL      0.254892
     40 H20        -4.5600   -7.1620   -0.5350 hn        1 MOL      0.254892
     41 N4          3.3220   -4.5270   -1.1700 n         1 MOL     -0.069554
     42 C13         4.5850   -4.5380   -1.9590 c3        1 MOL      0.082296
     43 C14         5.8030   -4.2580   -1.1170 c         1 MOL      0.479296
     44 O6          6.8740   -4.8040   -1.3430 o         1 MOL     -0.557499
     45 C15         4.5170   -3.5530   -3.2000 c3        1 MOL     -0.438652
     46 C16         3.9720   -2.1490   -2.8310 c         1 MOL      0.845866
     47 O7          4.5400   -1.4160   -2.0230 o         1 MOL     -0.782611
     48 O8          2.7840   -1.8460   -3.1010 o         1 MOL     -0.782611
     49 H21         3.0760   -3.6860   -0.6710 hn        1 MOL     -0.050807
     50 H22         4.7220   -5.5270   -2.3990 h1        1 MOL      0.095502
     51 H23         3.7170   -4.0130   -3.7840 hc        1 MOL      0.129846
     52 H24         5.4850   -3.5930   -3.6950 hc        1 MOL      0.129846
     53 N5          5.6940   -3.3940   -0.1350 n         1 MOL     -0.228587
     54 C17         6.6590   -3.0560    0.8770 c3        1 MOL     -0.050662
     55 C18         7.0700   -1.5740    1.0220 c         1 MOL      0.370097
     56 O9          7.8990   -1.2260    1.9310 o         1 MOL     -0.561328
     57 H25         4.9770   -2.7010   -0.2620 hn        1 MOL      0.211622
     58 H26         7.5730   -3.6580    0.9110 h1        1 MOL      0.098846
     59 H27         6.2750   -3.2000    1.8890 h1        1 MOL      0.098846
     60 N6          6.7390   -0.7530    0.0870 n         1 MOL     -0.018635
     61 C19         7.2620    0.6310   -0.1960 c3        1 MOL     -0.058414
     62 C20         6.3110    1.7920   -0.3440 c         1 MOL      0.473400
     63 O10         5.1340    1.5480   -0.6790 o         1 MOL     -0.556207
     64 C21         7.9850    0.5550   -1.4590 c3        1 MOL     -0.106720
     65 C22         7.1960    0.0810   -2.6680 c         1 MOL      0.578421
     66 N7          7.4400   -1.1370   -3.1780 n         1 MOL     -0.745156
     67 O11         6.3820    0.7270   -3.2930 o         1 MOL     -0.540865
     68 H28         6.0560   -1.1190   -0.5590 hn        1 MOL      0.097743
     69 H29         8.0070    0.7130    0.5930 h1        1 MOL      0.086401
     70 H30         8.8730   -0.0690   -1.3460 hc        1 MOL      0.048306
     71 H31         8.3370    1.5790   -1.6210 hc        1 MOL      0.048306
     72 H32         8.0720   -1.8010   -2.7670 hn        1 MOL      0.370999
     73 H33         6.9290   -1.3160   -4.0380 hn        1 MOL      0.370999
     74 N8          6.7680    2.9920   -0.2090 n         1 MOL     -0.214481
     75 C23         6.0210    4.2160   -0.6060 c3        1 MOL     -0.318306
     76 C24         4.8620    4.6360    0.2890 c         1 MOL      0.703369
     77 O12         4.9030    4.6590    1.4810 o         1 MOL     -0.547998
     78 H34         7.6970    3.0920    0.1860 hn        1 MOL      0.273041
     79 H35         5.7020    4.0860   -1.6340 h1        1 MOL      0.134897
     80 H36         6.7600    5.0060   -0.5000 h1        1 MOL      0.134897
     81 N9          3.6880    4.8080   -0.3460 n         1 MOL     -0.427942
     82 C25         2.3420    4.8670    0.1760 c3        1 MOL      0.269894
     83 C26         1.7000    3.4950    0.3820 c         1 MOL      0.571214
     84 O13         2.3490    2.5010    0.0210 o         1 MOL     -0.633678
     85 C27         1.5640    5.8310   -0.7520 c3        1 MOL     -0.381150
     86 C28         2.1630    7.1670   -0.7170 ca        1 MOL      0.146375
     87 C29         1.7650    7.9970    0.3310 ca        1 MOL     -0.188333
     88 C30         3.2260    7.4670   -1.5860 ca        1 MOL     -0.188333
     89 C31         2.5570    9.0890    0.6310 ca        1 MOL     -0.243124
     90 C32         3.9060    8.6160   -1.3550 ca        1 MOL     -0.243124
     91 C33         3.6300    9.4310   -0.2730 ca        1 MOL      0.334970
     92 O14         4.4540   10.5120   -0.0140 oh        1 MOL     -0.511644
     93 H37         3.8290    4.8100   -1.3490 hn        1 MOL      0.222443
     94 H38         2.3780    5.3630    1.1450 h1        1 MOL      0.044815
     95 H39         0.5490    5.8350   -0.3430 hc        1 MOL      0.105032
     96 H40         1.5480    5.5450   -1.8000 hc        1 MOL      0.105032
     97 H41         0.8680    7.7270    0.8730 ha        1 MOL      0.146179
     98 H42         3.3650    6.7870   -2.4160 ha        1 MOL      0.146179
     99 H43         2.4280    9.6790    1.5330 ha        1 MOL      0.151499
    100 H44         4.6830    8.9190   -2.0440 ha        1 MOL      0.151499
    101 H45         4.0430   11.2090    0.5070 ho        1 MOL      0.385121
    102 N10         0.5360    3.4170    1.0940 n         1 MOL     -0.674770
    103 C34         0.0140    2.2560    1.8030 c3        1 MOL      0.303691
    104 C35        -0.2080    1.0010    1.0180 c         1 MOL      0.167602
    105 O15         0.6810    0.5250    0.2730 o         1 MOL     -0.281060
    106 C36         0.9180    1.8940    2.9610 c3        1 MOL      0.269505
    107 C37         0.4590    0.7170    3.8730 c3        1 MOL     -0.268910
    108 C38         1.4380    3.1030    3.7700 c3        1 MOL     -0.284594
    109 C39        -0.5250    1.1620    4.9110 c3        1 MOL     -0.698413
    110 H46         0.1420    4.3170    1.3590 hn        1 MOL      0.336776
    111 H47        -0.9670    2.4200    2.2490 h1        1 MOL     -0.009139
    112 H48         1.8300    1.4550    2.5400 hc        1 MOL     -0.009731
    113 H49         1.2130    0.1470    4.4090 hc        1 MOL      0.150237
    114 H50        -0.1190    0.0390    3.2380 hc        1 MOL      0.150237
    115 H51         0.6100    3.7330    4.1020 hc        1 MOL      0.073249
    116 H52         1.9910    2.7200    4.6200 hc        1 MOL      0.073249
    117 H53         2.0440    3.7580    3.1490 hc        1 MOL      0.073249
    118 H54        -1.3740    1.6840    4.4720 hc        1 MOL      0.186784
    119 H55        -0.8270    0.2500    5.4290 hc        1 MOL      0.186784
    120 H56         0.0110    1.6870    5.7060 hc        1 MOL      0.186784
    121 N11        -1.3640    0.3870    1.2180 n         1 MOL     -0.291132
    122 C40        -1.7880   -0.8270    0.5300 c3        1 MOL     -0.205852
    123 C41        -3.2200   -0.8770    0.0640 c         1 MOL      0.657651
    124 O16        -3.5750   -1.9760   -0.4800 o         1 MOL     -0.568283
    125 C42        -1.3270   -2.0620    1.3240 c3        1 MOL      0.551820
    126 O17        -1.9250   -2.0840    2.6220 oh        1 MOL     -0.737461
    127 H57        -2.0330    0.9340    1.7460 hn        1 MOL      0.305519
    128 H58        -1.1590   -0.7690   -0.3670 h1        1 MOL      0.092881
    129 H59        -0.2540   -2.0420    1.5260 h1        1 MOL     -0.126534
    130 H60        -1.5500   -3.0200    0.8460 h1        1 MOL     -0.126534
    131 H61        -1.2810   -2.2660    3.3090 ho        1 MOL      0.455309
    132 N12        -4.0670    0.1840    0.1460 n         1 MOL     -0.521716
    133 C43        -5.4570    0.2200   -0.2430 c3        1 MOL      0.185006
    134 C44        -5.6350    0.5020   -1.7730 c         1 MOL      0.553731
    135 O18        -4.6500    0.9050   -2.3990 o         1 MOL     -0.554963
    136 C45        -6.1720    1.2400    0.7110 c3        1 MOL     -0.336985
    137 H62        -3.7520    0.9680    0.7100 hn        1 MOL      0.253553
    138 H63        -5.8430   -0.7860   -0.0930 h1        1 MOL      0.070796
    139 H64        -6.3160    0.7150    1.6550 hc        1 MOL      0.108729
    140 H65        -5.5040    2.0450    1.0040 hc        1 MOL      0.108729
    141 H66        -7.1270    1.6050    0.3400 hc        1 MOL      0.108729
    142 N13        -6.7760    0.2040   -2.4590 n         1 MOL     -0.568832
    143 C46        -8.0170   -0.2280   -1.9510 c3        1 MOL      0.488673
    144 C47        -9.2140    0.2550   -2.8660 c         1 MOL      0.245988
    145 O19        -9.2240    0.0780   -4.0730 o         1 MOL     -0.489459
    146 C48        -8.0800   -1.7430   -1.7570 c3        1 MOL     -0.077219
    147 H67        -6.7450    0.1520   -3.4640 hn        1 MOL      0.298901
    148 H68        -8.1540    0.2720   -0.9900 h1        1 MOL     -0.144921
    149 H69        -8.9060   -2.0290   -1.1050 hc        1 MOL      0.013231
    150 H70        -8.1150   -2.2710   -2.7050 hc        1 MOL      0.013231
    151 H71        -7.0920   -2.0040   -1.3610 hc        1 MOL      0.013231
    152 N14       -10.3830    0.6010   -2.2560 n         1 MOL     -0.211162
    153 C49       -10.7660    0.5920   -0.8090 c3        1 MOL     -0.367923
    154 C50        -9.8950    1.4720    0.0920 c         1 MOL      0.518893
    155 O20        -9.2840    1.0420    1.0770 o         1 MOL     -0.520041
    156 C51       -12.2350    0.8470   -0.7190 c3        1 MOL      0.138249
    157 C52       -12.8210    0.5160    0.6260 c3        1 MOL     -0.241110
    158 C53       -14.1670    1.0320    0.9880 c         1 MOL      0.705346
    159 O21       -14.4000    2.2270    0.6970 o         1 MOL     -0.672056
    160 O22       -14.9810    0.2620    1.5630 o         1 MOL     -0.672056
    161 H72       -11.1290    0.7350   -2.9230 hn        1 MOL      0.258122
    162 H73       -10.5560   -0.4180   -0.4470 h1        1 MOL      0.177424
    163 H74       -12.8280    0.2850   -1.4390 hc        1 MOL      0.004905
    164 H75       -12.4300    1.8760   -1.0280 hc        1 MOL      0.004905
    165 H76       -12.1520    0.8950    1.3990 hc        1 MOL      0.056065
    166 H77       -12.7050   -0.5480    0.8400 hc        1 MOL      0.056065
    167 N15        -9.7240    2.7250   -0.3220 n         1 MOL     -0.180221
    168 C54        -8.9250    3.7340    0.3070 c3        1 MOL     -0.244230
    169 H78        -7.8830    3.4170    0.3180 h1        1 MOL      0.105645
    170 H79        -9.0150    4.6670   -0.2500 h1        1 MOL      0.105645
    171 H80        -9.2700    3.8850    1.3300 h1        1 MOL      0.105645
    172 H81       -10.0620    2.9800   -1.2340 hn        1 MOL      0.237916
    173 Ca1         2.7960    0.3060   -1.1850 Ca        1 MOL      1.774118
    174 O23         3.7920    0.9950   -3.4720 oh        1 MOL     -0.867764
    175 H82         4.7310    0.8320   -3.3950 ho        1 MOL      0.422607
    176 H83         3.6200    0.9350   -4.4160 ho        1 MOL      0.422607
    177 O24         0.5730    1.1740   -2.8470 oh        1 MOL     -0.867764
    178 H84         0.4170    1.8930   -3.4590 ho        1 MOL      0.422607
    179 H85        -0.2650    0.7100   -2.7950 ho        1 MOL      0.422607
    180 O25         0.6530   -1.8680   -1.6250 oh        1 MOL     -0.867764
    181 H86        -0.0730   -2.2430   -2.1250 ho        1 MOL      0.422607
    182 H87         1.4100   -1.9190   -2.2090 ho        1 MOL      0.422607
@<TRIPOS>BOND
     1    1    2 1   
     2    1    4 1   
     3    1    5 1   
     4    1    6 1   
     5    2    3 2   
     6    2    7 1   
     7    7    8 1   
     8    7   15 1   
     9    8    9 1   
    10    8   11 1   
    11    8   16 1   
    12    9   10 2   
    13    9   19 1   
    14   11   12 1   
    15   11   17 1   
    16   11   18 1   
    17   12   13 1   
    18   12   14 1   
    19   19   20 1   
    20   19   28 1   
    21   20   21 1   
    22   20   23 1   
    23   20   29 1   
    24   21   22 2   
    25   21   41 1   
    26   23   24 1   
    27   23   30 1   
    28   23   31 1   
    29   24   25 1   
    30   24   32 1   
    31   24   33 1   
    32   25   26 1   
    33   25   34 1   
    34   25   35 1   
    35   26   27 1   
    36   26   36 1   
    37   26   37 1   
    38   27   38 1   
    39   27   39 1   
    40   27   40 1   
    41   41   42 1   
    42   41   49 1   
    43   42   43 1   
    44   42   45 1   
    45   42   50 1   
    46   43   44 2   
    47   43   53 1   
    48   45   46 1   
    49   45   51 1   
    50   45   52 1   
    51   46   47 1   
    52   46   48 1   
    53   53   54 1   
    54   53   57 1   
    55   54   55 1   
    56   54   58 1   
    57   54   59 1   
    58   55   56 2   
    59   55   60 1   
    60   60   61 1   
    61   60   68 1   
    62   61   62 1   
    63   61   64 1   
    64   61   69 1   
    65   62   63 2   
    66   62   74 1   
    67   64   65 1   
    68   64   70 1   
    69   64   71 1   
    70   65   66 1   
    71   65   67 2   
    72   66   72 1   
    73   66   73 1   
    74   74   75 1   
    75   74   78 1   
    76   75   76 1   
    77   75   79 1   
    78   75   80 1   
    79   76   77 2   
    80   76   81 1   
    81   81   82 1   
    82   81   93 1   
    83   82   83 1   
    84   82   85 1   
    85   82   94 1   
    86   83   84 2   
    87   83  102 1   
    88   85   86 1   
    89   85   95 1   
    90   85   96 1   
    91   86   87 ar  
    92   86   88 ar  
    93   87   89 ar  
    94   87   97 1   
    95   88   90 ar  
    96   88   98 1   
    97   89   91 ar  
    98   89   99 1   
    99   90   91 ar  
   100   90  100 1   
   101   91   92 1   
   102   92  101 1   
   103  102  103 1   
   104  102  110 1   
   105  103  104 1   
   106  103  106 1   
   107  103  111 1   
   108  104  105 2   
   109  104  121 1   
   110  106  107 1   
   111  106  108 1   
   112  106  112 1   
   113  107  109 1   
   114  107  113 1   
   115  107  114 1   
   116  108  115 1   
   117  108  116 1   
   118  108  117 1   
   119  109  118 1   
   120  109  119 1   
   121  109  120 1   
   122  121  122 1   
   123  121  127 1   
   124  122  123 1   
   125  122  125 1   
   126  122  128 1   
   127  123  124 2   
   128  123  132 1   
   129  125  126 1   
   130  125  129 1   
   131  125  130 1   
   132  126  131 1   
   133  132  133 1   
   134  132  137 1   
   135  133  134 1   
   136  133  136 1   
   137  133  138 1   
   138  134  135 2   
   139  134  142 1   
   140  136  139 1   
   141  136  140 1   
   142  136  141 1   
   143  142  143 1   
   144  142  147 1   
   145  143  144 1   
   146  143  146 1   
   147  143  148 1   
   148  144  145 2   
   149  144  152 1   
   150  146  149 1   
   151  146  150 1   
   152  146  151 1   
   153  152  153 1   
   154  152  161 1   
   155  153  154 1   
   156  153  156 1   
   157  153  162 1   
   158  154  155 2   
   159  154  167 1   
   160  156  157 1   
   161  156  163 1   
   162  156  164 1   
   163  157  158 1   
   164  157  165 1   
   165  157  166 1   
   166  158  159 1   
   167  158  160 1   
   168  167  168 1   
   169  167  172 1   
   170  168  169 1   
   171  168  170 1   
   172  168  171 1   
   173  174  175 1   
   174  174  176 1   
   175  177  178 1   
   176  177  179 1   
   177  180  181 1   
   178  180  182 1   
@<TRIPOS>SUBSTRUCTURE
     1 MOL         1 TEMP              0 ****  ****    0 ROOT
