@<TRIPOS>MOLECULE
MOL
  181   177     1     0     0
SMALL
resp


@<TRIPOS>ATOM
      1 C1         10.0480    6.8200   -2.3390 c3        1 MOL     -0.296860
      2 C2          9.2600    6.1540   -1.1940 c         1 MOL      0.673615
      3 O1          8.5360    6.7660   -0.3920 o         1 MOL     -0.565086
      4 H1         10.8670    7.4070   -1.9230 hc        1 MOL      0.077767
      5 H2         10.4510    6.0520   -2.9990 hc        1 MOL      0.077767
      6 H3          9.3840    7.4740   -2.9050 hc        1 MOL      0.077767
      7 N1          9.3600    4.7870   -1.0340 n         1 MOL     -0.667628
      8 C3         10.2850    3.8100   -1.7570 c3        1 MOL      0.216420
      9 C4         10.9290    2.7490   -0.8330 c         1 MOL      0.437848
     10 O2         11.7960    1.9430   -1.2520 o         1 MOL     -0.542336
     11 C5          9.4600    3.1990   -2.8940 c3        1 MOL     -0.451278
     12 C6          8.2820    2.2200   -2.4240 c         1 MOL      0.862599
     13 O3          7.8700    1.2880   -3.1490 o         1 MOL     -0.778182
     14 O4          7.7940    2.3000   -1.2480 o         1 MOL     -0.778182
     15 H4          8.6540    4.3430   -0.4680 hn        1 MOL      0.414536
     16 H5         11.1420    4.3450   -2.1540 h1        1 MOL      0.069415
     17 H6         10.1400    2.5950   -3.4990 hc        1 MOL      0.112154
     18 H7          8.9820    4.0280   -3.4260 hc        1 MOL      0.112154
     19 N2         10.7430    2.9530    0.4640 n         1 MOL     -0.365057
     20 C7         11.5430    2.3480    1.5410 c3        1 MOL      0.102427
     21 C8         10.8320    1.2260    2.2510 c         1 MOL      0.321125
     22 O5         11.3070    0.5160    3.1740 o         1 MOL     -0.536316
     23 C9         11.7630    3.4710    2.5340 c3        1 MOL     -0.175850
     24 H8         10.1320    3.6970    0.7510 hn        1 MOL      0.244225
     25 H9         12.5360    2.0430    1.2280 h1        1 MOL      0.099980
     26 H10        12.4200    4.2440    2.1430 hc        1 MOL      0.059401
     27 H11        10.8450    3.9790    2.8230 hc        1 MOL      0.059401
     28 H12        12.2980    3.1210    3.4210 hc        1 MOL      0.059401
     29 N3          9.5930    0.9330    1.7470 n         1 MOL     -0.045476
     30 C10         8.6860   -0.0790    2.2300 c3        1 MOL      0.004049
     31 C11         8.2150   -1.0710    1.2220 c         1 MOL      0.314146
     32 O6          8.2530   -0.8120    0.0250 o         1 MOL     -0.500563
     33 C12         7.4430    0.5690    2.8580 c3        1 MOL     -0.032001
     34 C13         6.6970    1.4970    1.9670 c         1 MOL      0.605758
     35 O7          6.5640    2.6950    2.3420 o         1 MOL     -0.666034
     36 O8          6.1870    1.1290    0.8730 o         1 MOL     -0.666034
     37 H13         9.3560    1.4240    0.8950 hn        1 MOL      0.129737
     38 H14         9.2160   -0.6480    2.9860 h1        1 MOL      0.036478
     39 H15         7.8010    1.1310    3.7340 hc        1 MOL      0.002816
     40 H16         6.8480   -0.2860    3.1970 hc        1 MOL      0.002816
     41 N4          7.8770   -2.2610    1.6610 n         1 MOL     -0.145982
     42 C14         7.5830   -3.3990    0.7910 c3        1 MOL     -0.342070
     43 C15         6.3860   -3.1940   -0.1490 c         1 MOL      0.830328
     44 O9          5.7990   -2.0990   -0.2520 o         1 MOL     -0.706662
     45 H17         7.9750   -2.5120    2.6390 hn        1 MOL      0.257553
     46 H18         7.4910   -4.2790    1.4380 h1        1 MOL      0.118750
     47 H19         8.4020   -3.5880    0.0990 h1        1 MOL      0.118750
     48 N5          6.0110   -4.2170   -0.7960 n         1 MOL     -0.653526
     49 C16         4.9050   -4.3180   -1.7240 c3        1 MOL      0.394571
     50 C17         3.5030   -3.9560   -1.1320 c         1 MOL      0.548392
     51 O10         2.6680   -3.2700   -1.7670 o         1 MOL     -0.473458
     52 C18         4.8530   -5.6810   -2.3990 c3        1 MOL     -0.401610
     53 C19         3.5380   -6.0500   -3.1940 c         1 MOL      0.708886
     54 N6          2.5940   -6.8270   -2.7160 n         1 MOL     -0.818836
     55 O11         3.3560   -5.5460   -4.2710 o         1 MOL     -0.543867
     56 H20         6.5960   -5.0370   -0.6960 hn        1 MOL      0.307936
     57 H21         5.0340   -3.6260   -2.5620 h1        1 MOL      0.013700
     58 H22         4.9470   -6.4630   -1.6550 hc        1 MOL      0.070696
     59 H23         5.6330   -5.8690   -3.1430 hc        1 MOL      0.070696
     60 H24         2.7950   -7.2730   -1.8340 hn        1 MOL      0.395492
     61 H25         1.7220   -6.7670   -3.2340 hn        1 MOL      0.395492
     62 N7          3.2280   -4.4910    0.0520 n         1 MOL     -0.586635
     63 C20         1.9920   -4.2800    0.8270 c3        1 MOL     -0.018235
     64 C21         1.9110   -2.8450    1.4780 c         1 MOL      0.745245
     65 O12         2.8700   -2.1180    1.4950 o         1 MOL     -0.571637
     66 H26         3.8610   -5.1230    0.5130 hn        1 MOL      0.322135
     67 H27         1.9570   -5.0920    1.5460 h1        1 MOL      0.079126
     68 H28         1.1160   -4.4560    0.2060 h1        1 MOL      0.079126
     69 N8          0.8060   -2.4240    2.0280 n         1 MOL     -0.647978
     70 C22        -0.3650   -3.2330    2.4520 c3        1 MOL      0.012063
     71 C23        -1.7650   -2.5320    2.2360 c         1 MOL      0.490282
     72 O13        -2.7760   -3.2420    2.1900 o         1 MOL     -0.528990
     73 C24        -0.3950   -3.5620    3.9640 c3        1 MOL      0.294768
     74 C25         0.5450   -4.7490    4.2080 c3        1 MOL     -0.433797
     75 O14         0.1540   -2.4770    4.6870 oh        1 MOL     -0.541165
     76 H29         0.8760   -1.4380    2.2230 hn        1 MOL      0.358351
     77 H30        -0.3430   -4.1890    1.9120 h1        1 MOL      0.081050
     78 H31        -1.3820   -3.8760    4.3000 h1        1 MOL      0.043008
     79 H32        -0.2990   -2.5210    5.5360 ho        1 MOL      0.371593
     80 H33         0.4590   -5.1760    5.2110 hc        1 MOL      0.100233
     81 H34         0.2420   -5.6000    3.5940 hc        1 MOL      0.100233
     82 H35         1.6030   -4.5010    4.2210 hc        1 MOL      0.100233
     83 N9         -1.7730   -1.1620    2.0930 n         1 MOL     -0.292752
     84 C26        -3.0150   -0.4220    1.9590 c3        1 MOL      0.106462
     85 C27        -3.0710   -0.0110    0.4410 c         1 MOL      0.517140
     86 O15        -2.0360    0.3070   -0.1720 o         1 MOL     -0.599698
     87 C28        -3.0410    0.7680    2.8980 c3        1 MOL     -0.100359
     88 C29        -2.7640    0.3030    4.3180 c3        1 MOL      0.041395
     89 C30        -4.4050    1.5050    2.6740 c3        1 MOL     -0.304191
     90 C31        -3.8510   -0.6590    4.9420 c3        1 MOL     -0.377709
     91 H36        -0.9110   -0.6600    1.9530 hn        1 MOL      0.217133
     92 H37        -3.7710   -1.1490    2.2690 h1        1 MOL      0.142635
     93 H38        -2.2060    1.4520    2.7200 hc        1 MOL      0.027224
     94 H39        -2.8020    1.1410    5.0230 hc        1 MOL      0.012436
     95 H40        -1.7710   -0.1050    4.4970 hc        1 MOL      0.012436
     96 H41        -5.1900    0.7640    2.8620 hc        1 MOL      0.126847
     97 H42        -4.5090    2.1660    3.5260 hc        1 MOL      0.126847
     98 H43        -4.4530    1.9940    1.6960 hc        1 MOL      0.126847
     99 H44        -3.7840   -1.6640    4.5190 hc        1 MOL      0.092019
    100 H45        -3.7230   -0.6910    6.0240 hc        1 MOL      0.092019
    101 H46        -4.7840   -0.1340    4.7490 hc        1 MOL      0.092019
    102 N10        -4.1240   -0.0710   -0.3840 n         1 MOL     -0.384513
    103 C32        -5.4740   -0.6350    0.0360 c3        1 MOL     -0.138949
    104 C33        -6.6410    0.0520   -0.6550 c         1 MOL      0.553114
    105 O16        -6.3720    0.9560   -1.4520 o         1 MOL     -0.565437
    106 C34        -5.3600   -2.1290   -0.2880 c3        1 MOL      0.059841
    107 C35        -4.8790   -2.7050   -1.6150 c         1 MOL      0.755678
    108 O17        -3.9930   -3.5820   -1.6070 o         1 MOL     -0.730968
    109 O18        -5.2870   -2.1180   -2.6840 o         1 MOL     -0.730968
    110 H47        -4.1330    0.5200   -1.2080 hn        1 MOL      0.321666
    111 H48        -5.6490   -0.6240    1.1060 h1        1 MOL      0.022766
    112 H49        -6.3020   -2.6310   -0.0750 hc        1 MOL     -0.033634
    113 H50        -4.8120   -2.7300    0.4400 hc        1 MOL     -0.033634
    114 N11        -7.8460   -0.2930   -0.2520 n         1 MOL     -0.190412
    115 C36        -9.1310    0.1670   -0.7960 c3        1 MOL     -0.199177
    116 C37       -10.2360    0.3430    0.2280 c         1 MOL      0.200189
    117 O19       -10.1590   -0.3050    1.2430 o         1 MOL     -0.448376
    118 C38        -9.6210   -0.8470   -1.9320 c3        1 MOL     -0.290127
    119 C39        -9.3480   -2.3480   -1.6940 ca        1 MOL      0.204142
    120 C40       -10.0160   -3.0850   -0.6930 ca        1 MOL     -0.239600
    121 C41        -8.5000   -3.0100   -2.5930 ca        1 MOL     -0.239600
    122 C42        -9.8160   -4.4930   -0.6170 ca        1 MOL     -0.134259
    123 C43        -8.1460   -4.3670   -2.3530 ca        1 MOL     -0.134259
    124 C44        -8.8160   -5.1350   -1.3290 ca        1 MOL     -0.091984
    125 H51        -7.8990   -1.0440    0.4170 hn        1 MOL      0.273999
    126 H52        -8.9750    1.0960   -1.3300 h1        1 MOL      0.151348
    127 H53        -8.9730   -0.6150   -2.7860 hc        1 MOL      0.109573
    128 H54       -10.6150   -0.6640   -2.3490 hc        1 MOL      0.109573
    129 H55       -10.6350   -2.5250   -0.0020 ha        1 MOL      0.166081
    130 H56        -8.1640   -2.4850   -3.4750 ha        1 MOL      0.166081
    131 H57       -10.3720   -5.1370    0.0500 ha        1 MOL      0.104064
    132 H58        -7.3060   -4.8280   -2.8530 ha        1 MOL      0.104064
    133 H59        -8.6670   -6.1870   -1.1230 ha        1 MOL      0.093739
    134 N12       -11.3070    1.0370   -0.1930 n         1 MOL      0.173274
    135 C45       -11.4580    2.0590   -1.2560 c3        1 MOL     -0.014833
    136 C46       -10.4150    3.1260   -1.4150 c         1 MOL      0.469542
    137 O20       -10.1940    3.6570   -2.4760 o         1 MOL     -0.511669
    138 C47       -12.8540    2.6930   -1.2020 c3        1 MOL     -0.146765
    139 C48       -13.5710    1.6730   -0.3150 c3        1 MOL      0.075678
    140 C49       -12.4910    1.0020    0.5380 c3        1 MOL     -0.104466
    141 H60       -11.3510    1.5330   -2.1950 h1        1 MOL      0.040923
    142 H61       -12.9010    3.6290   -0.6590 hc        1 MOL      0.072353
    143 H62       -13.3550    2.7640   -2.1660 hc        1 MOL      0.072353
    144 H63       -14.4160    2.0690    0.2540 hc        1 MOL     -0.017119
    145 H64       -13.9590    0.9130   -0.9840 hc        1 MOL     -0.017119
    146 H65       -12.3350    1.4570    1.5150 h1        1 MOL      0.048522
    147 H66       -12.8440   -0.0040    0.7450 h1        1 MOL      0.048522
    148 N13        -9.6810    3.5050   -0.3120 n         1 MOL     -0.554507
    149 C50        -8.2590    4.0470   -0.4450 c3        1 MOL      0.312144
    150 C51        -8.1190    5.3840   -1.2580 c         1 MOL      0.490175
    151 O21        -8.8130    6.3250   -1.0010 o         1 MOL     -0.544205
    152 C52        -7.6440    4.2610    0.9430 c3        1 MOL     -0.068138
    153 C53        -7.5510    2.9840    1.6910 c3        1 MOL      0.028751
    154 C54        -7.2850    3.1560    3.2340 c         1 MOL      0.644210
    155 O22        -6.9450    4.2760    3.6920 o         1 MOL     -0.713134
    156 O23        -7.4920    2.1320    3.9290 o         1 MOL     -0.713134
    157 H67       -10.0300    3.2200    0.6020 hn        1 MOL      0.295485
    158 H68        -7.7260    3.2270   -0.9370 h1        1 MOL      0.107312
    159 H69        -8.2400    5.0680    1.3620 hc        1 MOL     -0.005787
    160 H70        -6.6660    4.6660    0.6890 hc        1 MOL     -0.005787
    161 H71        -6.8180    2.3120    1.2450 hc        1 MOL     -0.054364
    162 H72        -8.4340    2.3730    1.5100 hc        1 MOL     -0.054364
    163 N14        -7.1550    5.4710   -2.2630 n         1 MOL     -0.522973
    164 C55        -6.3570    4.3320   -2.8470 c3        1 MOL      0.015207
    165 H73        -7.0140    3.4790   -3.0200 h1        1 MOL      0.043930
    166 H74        -5.9140    4.6450   -3.7930 h1        1 MOL      0.043930
    167 H75        -5.5680    4.0470   -2.1530 h1        1 MOL      0.043930
    168 H76        -7.1480    6.3240   -2.8070 hn        1 MOL      0.298634
    169 Ca1         6.2450    0.1900   -1.4020 Ca        1 MOL      1.749896
    170 O24         4.7490   -0.9320   -3.4210 oh        1 MOL     -0.805319
    171 O25         4.8860    2.1680   -2.5370 oh        1 MOL     -0.805319
    172 H77         5.0230   -0.6050   -4.2790 ho        1 MOL      0.403117
    173 H78         4.5430    2.2770   -3.4190 ho        1 MOL      0.403117
    174 H79         4.0550   -1.5630   -3.6110 ho        1 MOL      0.403117
    175 H80         4.2590    2.6370   -1.9760 ho        1 MOL      0.403117
    176 O26         7.4480   -1.8660   -2.7060 oh        1 MOL     -0.805319
    177 H81         8.3870   -1.9930   -2.6300 ho        1 MOL      0.403117
    178 H82         7.2140   -2.2340   -3.5590 ho        1 MOL      0.403117
    179 O27         3.6180    0.0990   -0.6750 oh        1 MOL     -0.805319
    180 H83         3.0510    0.8510   -0.4800 ho        1 MOL      0.403117
    181 H84         3.3490   -0.5630   -0.0420 ho        1 MOL      0.403117
@<TRIPOS>BOND
     1    1    2 1   
     2    1    4 1   
     3    1    5 1   
     4    1    6 1   
     5    2    3 2   
     6    2    7 1   
     7    7    8 1   
     8    7   15 1   
     9    8    9 1   
    10    8   11 1   
    11    8   16 1   
    12    9   10 2   
    13    9   19 1   
    14   11   12 1   
    15   11   17 1   
    16   11   18 1   
    17   12   13 1   
    18   12   14 1   
    19   19   20 1   
    20   19   24 1   
    21   20   21 1   
    22   20   23 1   
    23   20   25 1   
    24   21   22 2   
    25   21   29 1   
    26   23   26 1   
    27   23   27 1   
    28   23   28 1   
    29   29   30 1   
    30   29   37 1   
    31   30   31 1   
    32   30   33 1   
    33   30   38 1   
    34   31   32 2   
    35   31   41 1   
    36   33   34 1   
    37   33   39 1   
    38   33   40 1   
    39   34   35 1   
    40   34   36 1   
    41   41   42 1   
    42   41   45 1   
    43   42   43 1   
    44   42   46 1   
    45   42   47 1   
    46   43   44 2   
    47   43   48 1   
    48   48   49 1   
    49   48   56 1   
    50   49   50 1   
    51   49   52 1   
    52   49   57 1   
    53   50   51 2   
    54   50   62 1   
    55   52   53 1   
    56   52   58 1   
    57   52   59 1   
    58   53   54 1   
    59   53   55 2   
    60   54   60 1   
    61   54   61 1   
    62   62   63 1   
    63   62   66 1   
    64   63   64 1   
    65   63   67 1   
    66   63   68 1   
    67   64   65 2   
    68   64   69 1   
    69   69   70 1   
    70   69   76 1   
    71   70   71 1   
    72   70   73 1   
    73   70   77 1   
    74   71   72 2   
    75   71   83 1   
    76   73   74 1   
    77   73   75 1   
    78   73   78 1   
    79   74   80 1   
    80   74   81 1   
    81   74   82 1   
    82   75   79 1   
    83   83   84 1   
    84   83   91 1   
    85   84   85 1   
    86   84   87 1   
    87   84   92 1   
    88   85   86 2   
    89   85  102 1   
    90   87   88 1   
    91   87   89 1   
    92   87   93 1   
    93   88   90 1   
    94   88   94 1   
    95   88   95 1   
    96   89   96 1   
    97   89   97 1   
    98   89   98 1   
    99   90   99 1   
   100   90  100 1   
   101   90  101 1   
   102  102  103 1   
   103  102  110 1   
   104  103  104 1   
   105  103  106 1   
   106  103  111 1   
   107  104  105 2   
   108  104  114 1   
   109  106  107 1   
   110  106  112 1   
   111  106  113 1   
   112  107  108 1   
   113  107  109 1   
   114  114  115 1   
   115  114  125 1   
   116  115  116 1   
   117  115  118 1   
   118  115  126 1   
   119  116  117 2   
   120  116  134 1   
   121  118  119 1   
   122  118  127 1   
   123  118  128 1   
   124  119  120 ar  
   125  119  121 ar  
   126  120  122 ar  
   127  120  129 1   
   128  121  123 ar  
   129  121  130 1   
   130  122  124 ar  
   131  122  131 1   
   132  123  124 ar  
   133  123  132 1   
   134  124  133 1   
   135  134  135 1   
   136  134  140 1   
   137  135  136 1   
   138  135  138 1   
   139  135  141 1   
   140  136  137 2   
   141  136  148 1   
   142  138  139 1   
   143  138  142 1   
   144  138  143 1   
   145  139  140 1   
   146  139  144 1   
   147  139  145 1   
   148  140  146 1   
   149  140  147 1   
   150  148  149 1   
   151  148  157 1   
   152  149  150 1   
   153  149  152 1   
   154  149  158 1   
   155  150  151 2   
   156  150  163 1   
   157  152  153 1   
   158  152  159 1   
   159  152  160 1   
   160  153  154 1   
   161  153  161 1   
   162  153  162 1   
   163  154  155 1   
   164  154  156 1   
   165  163  164 1   
   166  163  168 1   
   167  164  165 1   
   168  164  166 1   
   169  164  167 1   
   170  170  172 1   
   171  170  174 1   
   172  171  173 1   
   173  171  175 1   
   174  176  177 1   
   175  176  178 1   
   176  179  180 1   
   177  179  181 1   
@<TRIPOS>SUBSTRUCTURE
     1 MOL         1 TEMP              0 ****  ****    0 ROOT
