@<TRIPOS>MOLECULE
MOL
  175   173     1     0     0
SMALL
resp


@<TRIPOS>ATOM
      1 C1         -6.7420    7.8130    2.0510 c3        1 MOL     -0.324348
      2 C2         -7.7360    7.2410    1.0310 c         1 MOL      0.679097
      3 O1         -8.0190    7.9030    0.0610 o         1 MOL     -0.580213
      4 H1         -7.1200    7.6440    3.0600 hc        1 MOL      0.077808
      5 H2         -5.7780    7.3170    1.9380 hc        1 MOL      0.077808
      6 H3         -6.6230    8.8830    1.8830 hc        1 MOL      0.077808
      7 N1         -8.3530    6.0170    1.1870 n         1 MOL     -0.597247
      8 C3         -9.2190    5.3440    0.2490 c3        1 MOL      0.394823
      9 C4         -8.4640    4.2980   -0.6620 c         1 MOL      0.396138
     10 O2         -9.1260    3.7080   -1.5320 o         1 MOL     -0.473421
     11 C5        -10.2910    4.7230    1.0620 c3        1 MOL     -0.272682
     12 C6        -11.4360    4.3430    0.1240 c         1 MOL      0.757953
     13 O3        -11.9830    5.1460   -0.6320 o         1 MOL     -0.727907
     14 O4        -11.8550    3.1630    0.2900 o         1 MOL     -0.727907
     15 H4         -8.0500    5.5220    2.0170 hn        1 MOL      0.271372
     16 H5         -9.7260    6.0910   -0.3620 h1        1 MOL      0.014047
     17 H6        -10.6990    5.4700    1.7460 hc        1 MOL      0.020610
     18 H7         -9.7980    3.8910    1.5690 hc        1 MOL      0.020610
     19 N2         -7.1320    4.0590   -0.4110 n         1 MOL     -0.457881
     20 C7         -6.3540    3.1230   -1.1670 c3        1 MOL      0.230026
     21 C8         -5.1300    2.5100   -0.3340 c         1 MOL      0.611483
     22 O5         -4.4690    3.1690    0.4810 o         1 MOL     -0.569471
     23 C9         -5.7210    3.7660   -2.4660 c3        1 MOL     -0.320102
     24 H8         -6.6950    4.4690    0.3980 hn        1 MOL      0.214342
     25 H9         -7.0260    2.3120   -1.4570 h1        1 MOL      0.024106
     26 H10        -5.1510    4.6310   -2.1500 hc        1 MOL      0.093215
     27 H11        -5.0410    3.0420   -2.9260 hc        1 MOL      0.093215
     28 H12        -6.5110    4.0380   -3.1710 hc        1 MOL      0.093215
     29 N3         -4.8110    1.2410   -0.4220 n         1 MOL     -0.583136
     30 C10        -5.2280    0.2220   -1.4380 c3        1 MOL     -0.001753
     31 C11        -5.5070   -1.1200   -0.7210 c         1 MOL      0.584741
     32 O6         -4.7390   -1.5640    0.1380 o         1 MOL     -0.542095
     33 C12        -4.1130   -0.0120   -2.4810 c3        1 MOL     -0.158983
     34 C13        -2.7750   -0.5110   -1.9090 c         1 MOL      0.579897
     35 O7         -2.2930   -1.6610   -2.1460 o         1 MOL     -0.660671
     36 O8         -2.1590    0.2370   -1.0990 o         1 MOL     -0.660671
     37 H13        -4.0080    1.0060    0.1450 hn        1 MOL      0.365876
     38 H14        -6.1020    0.5470   -1.9900 h1        1 MOL      0.070065
     39 H15        -3.8770    0.9460   -2.9330 hc        1 MOL      0.044519
     40 H16        -4.4250   -0.8030   -3.1560 hc        1 MOL      0.044519
     41 N4         -6.4340   -1.8710   -1.3430 n         1 MOL     -0.499102
     42 C14        -6.7860   -3.1960   -0.8880 c3        1 MOL      0.137226
     43 C15        -6.5310   -4.3540   -1.8770 c         1 MOL      0.542013
     44 O9         -7.5020   -4.8270   -2.4090 o         1 MOL     -0.554286
     45 H17        -6.8300   -1.4790   -2.1790 hn        1 MOL      0.319204
     46 H18        -7.8270   -3.2670   -0.5790 h1        1 MOL      0.027076
     47 H19        -6.1620   -3.3730    0.0010 h1        1 MOL      0.027076
     48 N5         -5.2930   -4.8020   -1.9640 n         1 MOL     -0.514918
     49 C16        -4.1080   -4.5980   -1.1940 c3        1 MOL      0.144450
     50 C17        -4.1070   -5.4640    0.0730 c         1 MOL      0.488514
     51 O10        -4.7060   -6.5200    0.1130 o         1 MOL     -0.526615
     52 C18        -2.9930   -4.9280   -2.1630 c3        1 MOL     -0.178777
     53 C19        -1.5630   -4.4820   -1.7020 c         1 MOL      0.328771
     54 N6         -0.5260   -4.9170   -2.3610 n         1 MOL     -0.521906
     55 O11        -1.3960   -3.9470   -0.6150 o         1 MOL     -0.496428
     56 H20        -5.2780   -5.6990   -2.4200 hn        1 MOL      0.277063
     57 H21        -3.9440   -3.5370   -1.0130 h1        1 MOL      0.152695
     58 H22        -3.1790   -4.4390   -3.1200 hc        1 MOL      0.075307
     59 H23        -2.8980   -6.0120   -2.2850 hc        1 MOL      0.075307
     60 H24        -0.7180   -5.2100   -3.3090 hn        1 MOL      0.294733
     61 H25         0.3930   -4.5570   -2.1320 hn        1 MOL      0.294733
     62 N7         -3.3430   -4.9930    1.0990 n         1 MOL     -0.197122
     63 C20        -3.1780   -5.6500    2.3610 c3        1 MOL     -0.311390
     64 C21        -1.7340   -5.8990    2.7100 c         1 MOL      0.563330
     65 O12        -1.4100   -6.5190    3.7750 o         1 MOL     -0.596764
     66 H26        -2.9430   -4.0700    1.0320 hn        1 MOL      0.173414
     67 H27        -3.6370   -6.6350    2.3990 h1        1 MOL      0.137261
     68 H28        -3.5230   -5.0010    3.1650 h1        1 MOL      0.137261
     69 N8         -0.8210   -5.6000    1.7790 n         1 MOL     -0.277233
     70 C22         0.5970   -5.5300    2.1450 c3        1 MOL     -0.030614
     71 C23         1.1120   -4.0250    1.9460 c         1 MOL      0.425871
     72 O13         0.3880   -3.1040    1.4620 o         1 MOL     -0.605059
     73 C24         1.3620   -6.5260    1.2430 c3        1 MOL      0.386245
     74 C25         0.9290   -7.9110    1.5250 c3        1 MOL     -0.586641
     75 O14         1.1510   -6.4180   -0.1980 oh        1 MOL     -0.620856
     76 H29        -1.1130   -5.3170    0.8700 hn        1 MOL      0.283060
     77 H30         0.8590   -5.7600    3.1850 h1        1 MOL      0.073404
     78 H31         2.4280   -6.3980    1.4340 h1        1 MOL     -0.013583
     79 H32         1.6330   -5.6660   -0.5440 ho        1 MOL      0.429298
     80 H33        -0.1160   -7.8350    1.2100 hc        1 MOL      0.154807
     81 H34         1.3500   -8.5390    0.7330 hc        1 MOL      0.154807
     82 H35         1.0620   -8.1630    2.5750 hc        1 MOL      0.154807
     83 N9          2.2710   -3.7460    2.4880 n         1 MOL     -0.200587
     84 C26         2.9980   -2.4740    2.2360 c3        1 MOL      0.241760
     85 C27         3.9670   -2.8480    1.1310 c         1 MOL      0.162793
     86 O15         4.6860   -3.8200    1.2300 o         1 MOL     -0.500691
     87 C28         3.6520   -1.9340    3.5450 c3        1 MOL      0.204160
     88 C29         4.1490   -0.5380    3.2070 c3        1 MOL      0.126519
     89 C30         2.7510   -1.9680    4.8260 c3        1 MOL     -0.294498
     90 C31         5.1270    0.0450    4.2380 c3        1 MOL     -0.563056
     91 H36         2.8410   -4.5070    2.8180 hn        1 MOL      0.176565
     92 H37         2.2910   -1.7180    1.9060 h1        1 MOL     -0.067880
     93 H38         4.5140   -2.5430    3.7770 hc        1 MOL     -0.049624
     94 H39         3.2440    0.0480    3.0370 hc        1 MOL      0.013779
     95 H40         4.7180   -0.5700    2.2780 hc        1 MOL      0.013779
     96 H41         3.2950   -1.7700    5.7420 hc        1 MOL      0.061292
     97 H42         1.9500   -1.2500    4.6770 hc        1 MOL      0.061292
     98 H43         2.1750   -2.8920    4.8510 hc        1 MOL      0.061292
     99 H44         5.8040   -0.7500    4.5290 hc        1 MOL      0.137985
    100 H45         5.7310    0.8520    3.8170 hc        1 MOL      0.137985
    101 H46         4.5070    0.2860    5.0890 hc        1 MOL      0.137985
    102 N10         3.9550   -2.0390    0.1110 n         1 MOL     -0.095285
    103 C32         4.5760   -2.3350   -1.1580 c3        1 MOL      0.100127
    104 C33         5.6950   -1.3730   -1.7530 c         1 MOL      0.421189
    105 O16         6.2870   -1.6840   -2.8370 o         1 MOL     -0.536453
    106 C34         3.5270   -2.6610   -2.2540 c3        1 MOL     -0.262030
    107 C35         2.5320   -3.7020   -1.7630 c         1 MOL      0.715862
    108 O17         2.7030   -4.9560   -1.8900 o         1 MOL     -0.670158
    109 O18         1.4500   -3.3010   -1.2830 o         1 MOL     -0.670158
    110 H47         3.2530   -1.3150    0.1360 hn        1 MOL      0.145400
    111 H48         5.1710   -3.2300   -0.9790 h1        1 MOL      0.076035
    112 H49         4.0290   -2.9470   -3.1830 hc        1 MOL      0.051191
    113 H50         2.9910   -1.7340   -2.4090 hc        1 MOL      0.051191
    114 N11         5.9410   -0.2640   -1.0910 n         1 MOL     -0.348210
    115 C36         6.7600    0.9100   -1.4910 c3        1 MOL      0.150613
    116 C37         6.4970    2.1310   -0.6640 c         1 MOL      0.425116
    117 O19         6.2190    1.9210    0.5020 o         1 MOL     -0.497920
    118 C38         8.2860    0.5440   -1.2940 c3        1 MOL     -0.145908
    119 C39         9.1980    1.6580   -1.5600 ca        1 MOL      0.010850
    120 C40         9.5640    2.5970   -0.5880 ca        1 MOL     -0.110889
    121 C41         9.6530    1.7790   -2.8890 ca        1 MOL     -0.110889
    122 C42        10.4960    3.6280   -0.9200 ca        1 MOL     -0.157150
    123 C43        10.5700    2.8810   -3.1990 ca        1 MOL     -0.157150
    124 C44        10.8950    3.7920   -2.2390 ca        1 MOL     -0.081916
    125 H51         5.4590   -0.2760   -0.2010 hn        1 MOL      0.203812
    126 H52         6.6500    1.0170   -2.5650 h1        1 MOL      0.063217
    127 H53         8.4600   -0.1810   -2.0800 hc        1 MOL      0.084715
    128 H54         8.3400   -0.0120   -0.3560 hc        1 MOL      0.084715
    129 H55         9.3970    2.4630    0.4640 ha        1 MOL      0.125114
    130 H56         9.4130    1.0330   -3.6360 ha        1 MOL      0.125114
    131 H57        10.7820    4.3640   -0.1880 ha        1 MOL      0.114761
    132 H58        11.0530    2.9380   -4.1620 ha        1 MOL      0.114761
    133 H59        11.5330    4.6250   -2.5000 ha        1 MOL      0.095553
    134 N12         6.4330    3.3820   -1.1820 n         1 MOL     -0.343657
    135 C45         6.4310    4.6790   -0.4060 c3        1 MOL      0.184948
    136 C46         5.2340    5.0000    0.4920 c         1 MOL      0.342209
    137 O20         5.2170    6.0170    1.1840 o         1 MOL     -0.544862
    138 C47         6.4910    5.7980   -1.4220 c3        1 MOL     -0.116924
    139 C48         7.2870    5.2310   -2.6100 c3        1 MOL     -0.049889
    140 C49         6.6810    3.7610   -2.5880 c3        1 MOL     -0.182875
    141 H60         7.2570    4.6900    0.3090 h1        1 MOL      0.067187
    142 H61         5.5070    5.9990   -1.8360 hc        1 MOL      0.073363
    143 H62         7.0100    6.6860   -1.0480 hc        1 MOL      0.073363
    144 H63         7.0260    5.7390   -3.5370 hc        1 MOL      0.054766
    145 H64         8.3340    5.2980   -2.3160 hc        1 MOL      0.054766
    146 H65         5.6920    3.8220   -3.0350 h1        1 MOL      0.105248
    147 H66         7.3360    3.0270   -3.0650 h1        1 MOL      0.105248
    148 N13         4.2480    4.1450    0.5120 n         1 MOL     -0.265578
    149 C50         2.9280    4.5160    1.1400 c3        1 MOL     -0.204533
    150 C51         3.0090    4.7170    2.6260 c         1 MOL      0.614393
    151 O21         2.0110    5.2370    3.1030 o         1 MOL     -0.541240
    152 C52         1.8090    3.4380    0.8110 c3        1 MOL     -0.191352
    153 C53         2.2310    2.0130    1.3330 c3        1 MOL     -0.062897
    154 C54         1.3690    0.8350    0.7370 c         1 MOL      0.740179
    155 O22         1.8980   -0.0830    0.0710 o         1 MOL     -0.711352
    156 O23         0.1230    0.8580    0.9340 o         1 MOL     -0.711352
    157 H67         4.1960    3.3390   -0.0930 hn        1 MOL      0.304982
    158 H68         2.5800    5.4610    0.7140 h1        1 MOL      0.149665
    159 H69         1.6280    3.3280   -0.2630 hc        1 MOL      0.116205
    160 H70         0.9050    3.7930    1.2960 hc        1 MOL      0.116205
    161 H71         2.2080    2.0020    2.4240 hc        1 MOL     -0.008915
    162 H72         3.2620    1.7510    1.0980 hc        1 MOL     -0.008915
    163 N14         4.0600    4.3350    3.4130 n         1 MOL     -0.225672
    164 C55         4.2310    4.7620    4.7960 c3        1 MOL     -0.185373
    165 H73         3.4030    4.3850    5.3970 h1        1 MOL      0.084802
    166 H74         5.1700    4.3690    5.1850 h1        1 MOL      0.084802
    167 H75         4.2450    5.8510    4.8410 h1        1 MOL      0.084802
    168 H76         4.8700    3.9380    2.9570 hn        1 MOL      0.230876
    169 Ca1        -0.2230   -1.5030   -0.4640 Ca        1 MOL      1.693304
    170 O24         0.7790   -0.5690   -2.7530 oh        1 MOL     -0.788765
    171 H77         1.2580    0.1680   -3.1220 ho        1 MOL      0.392573
    172 H78         0.8170   -1.2480   -3.4370 ho        1 MOL      0.392573
    173 O25        -2.2560   -1.5050    1.2620 oh        1 MOL     -0.788765
    174 H79        -2.2430   -0.8370    1.9470 ho        1 MOL      0.392573
    175 H80        -3.1580   -1.5250    0.9630 ho        1 MOL      0.392573
@<TRIPOS>BOND
     1    1    2 1   
     2    1    4 1   
     3    1    5 1   
     4    1    6 1   
     5    2    3 2   
     6    2    7 1   
     7    7    8 1   
     8    7   15 1   
     9    8    9 1   
    10    8   11 1   
    11    8   16 1   
    12    9   10 2   
    13    9   19 1   
    14   11   12 1   
    15   11   17 1   
    16   11   18 1   
    17   12   13 1   
    18   12   14 1   
    19   19   20 1   
    20   19   24 1   
    21   20   21 1   
    22   20   23 1   
    23   20   25 1   
    24   21   22 2   
    25   21   29 1   
    26   23   26 1   
    27   23   27 1   
    28   23   28 1   
    29   29   30 1   
    30   29   37 1   
    31   30   31 1   
    32   30   33 1   
    33   30   38 1   
    34   31   32 2   
    35   31   41 1   
    36   33   34 1   
    37   33   39 1   
    38   33   40 1   
    39   34   35 1   
    40   34   36 1   
    41   41   42 1   
    42   41   45 1   
    43   42   43 1   
    44   42   46 1   
    45   42   47 1   
    46   43   44 2   
    47   43   48 1   
    48   48   49 1   
    49   48   56 1   
    50   49   50 1   
    51   49   52 1   
    52   49   57 1   
    53   50   51 2   
    54   50   62 1   
    55   52   53 1   
    56   52   58 1   
    57   52   59 1   
    58   53   54 1   
    59   53   55 2   
    60   54   60 1   
    61   54   61 1   
    62   62   63 1   
    63   62   66 1   
    64   63   64 1   
    65   63   67 1   
    66   63   68 1   
    67   64   65 2   
    68   64   69 1   
    69   69   70 1   
    70   69   76 1   
    71   70   71 1   
    72   70   73 1   
    73   70   77 1   
    74   71   72 2   
    75   71   83 1   
    76   73   74 1   
    77   73   75 1   
    78   73   78 1   
    79   74   80 1   
    80   74   81 1   
    81   74   82 1   
    82   75   79 1   
    83   83   84 1   
    84   83   91 1   
    85   84   85 1   
    86   84   87 1   
    87   84   92 1   
    88   85   86 2   
    89   85  102 1   
    90   87   88 1   
    91   87   89 1   
    92   87   93 1   
    93   88   90 1   
    94   88   94 1   
    95   88   95 1   
    96   89   96 1   
    97   89   97 1   
    98   89   98 1   
    99   90   99 1   
   100   90  100 1   
   101   90  101 1   
   102  102  103 1   
   103  102  110 1   
   104  103  104 1   
   105  103  106 1   
   106  103  111 1   
   107  104  105 2   
   108  104  114 1   
   109  106  107 1   
   110  106  112 1   
   111  106  113 1   
   112  107  108 1   
   113  107  109 1   
   114  114  115 1   
   115  114  125 1   
   116  115  116 1   
   117  115  118 1   
   118  115  126 1   
   119  116  117 2   
   120  116  134 1   
   121  118  119 1   
   122  118  127 1   
   123  118  128 1   
   124  119  120 ar  
   125  119  121 ar  
   126  120  122 ar  
   127  120  129 1   
   128  121  123 ar  
   129  121  130 1   
   130  122  124 ar  
   131  122  131 1   
   132  123  124 ar  
   133  123  132 1   
   134  124  133 1   
   135  134  135 1   
   136  134  140 1   
   137  135  136 1   
   138  135  138 1   
   139  135  141 1   
   140  136  137 2   
   141  136  148 1   
   142  138  139 1   
   143  138  142 1   
   144  138  143 1   
   145  139  140 1   
   146  139  144 1   
   147  139  145 1   
   148  140  146 1   
   149  140  147 1   
   150  148  149 1   
   151  148  157 1   
   152  149  150 1   
   153  149  152 1   
   154  149  158 1   
   155  150  151 2   
   156  150  163 1   
   157  152  153 1   
   158  152  159 1   
   159  152  160 1   
   160  153  154 1   
   161  153  161 1   
   162  153  162 1   
   163  154  155 1   
   164  154  156 1   
   165  163  164 1   
   166  163  168 1   
   167  164  165 1   
   168  164  166 1   
   169  164  167 1   
   170  170  171 1   
   171  170  172 1   
   172  173  174 1   
   173  173  175 1   
@<TRIPOS>SUBSTRUCTURE
     1 MOL         1 TEMP              0 ****  ****    0 ROOT
