@<TRIPOS>MOLECULE
MOL
  191   184     1     0     0
SMALL
resp


@<TRIPOS>ATOM
      1 C1          1.0930    0.9460   -3.4190 c3        1 MOL     -0.362146
      2 C2          2.1670    0.6770   -2.3970 c         1 MOL      0.585220
      3 O1          1.9760   -0.1860   -1.5320 o         1 MOL     -0.595953
      4 H1          0.8520    2.0090   -3.4220 hc        1 MOL      0.105391
      5 H2          1.4490    0.6530   -4.4070 hc        1 MOL      0.105391
      6 H3          0.2000    0.3720   -3.1690 hc        1 MOL      0.105391
      7 N1          3.2970    1.3880   -2.5680 n         1 MOL     -0.330702
      8 C3          4.4560    1.2430   -1.7030 c3        1 MOL     -0.046470
      9 C4          4.8420    2.6090   -1.0860 c         1 MOL      0.533366
     10 O2          5.9700    2.9220   -0.7330 o         1 MOL     -0.432432
     11 C5          5.5520    0.4770   -2.3740 c3        1 MOL     -0.268883
     12 C6          6.2090    1.1870   -3.5960 c         1 MOL      0.683571
     13 O3          5.7090    2.1710   -4.0650 o         1 MOL     -0.649460
     14 O4          7.2870    0.7880   -4.0760 o         1 MOL     -0.649460
     15 H4          3.3660    2.0120   -3.3500 hn        1 MOL      0.230612
     16 H5          4.0960    0.5600   -0.9380 h1        1 MOL      0.163124
     17 H6          5.2510   -0.5300   -2.6660 hc        1 MOL      0.069704
     18 H7          6.2320    0.3010   -1.5410 hc        1 MOL      0.069704
     19 N2          3.8570    3.5220   -0.9870 n         1 MOL     -0.377356
     20 C7          3.8210    4.7140   -0.0360 c3        1 MOL      0.162918
     21 C8          4.1370    4.4110    1.4180 c         1 MOL      0.446500
     22 O5          4.7090    5.2400    2.1020 o         1 MOL     -0.517248
     23 C9          4.6590    5.9210   -0.5030 c3        1 MOL     -0.003192
     24 C10         4.2910    6.4040   -1.9920 c3        1 MOL      0.049933
     25 C11         5.1780    7.6390   -2.2600 c3        1 MOL      0.141927
     26 C12         4.8370    8.2820   -3.6140 c3        1 MOL      0.026811
     27 N3          5.7770    9.3900   -3.9380 n4        1 MOL     -0.373803
     28 H8          2.9820    3.2950   -1.4340 hn        1 MOL      0.192264
     29 H9          2.7860    5.0660   -0.0800 h1        1 MOL      0.057282
     30 H10         5.7030    5.6400   -0.3990 hc        1 MOL      0.006724
     31 H11         4.4220    6.7670    0.1430 hc        1 MOL      0.006724
     32 H12         3.2420    6.6600   -1.8850 hc        1 MOL     -0.020687
     33 H13         4.4280    5.6110   -2.7200 hc        1 MOL     -0.020687
     34 H14         6.2370    7.3610   -2.2580 hc        1 MOL     -0.017046
     35 H15         4.9600    8.3360   -1.4520 hc        1 MOL     -0.017046
     36 H16         3.8220    8.6570   -3.4740 hx        1 MOL      0.067341
     37 H17         4.9090    7.5400   -4.4090 hx        1 MOL      0.067341
     38 H18         5.3860    9.8010   -4.7740 hn        1 MOL      0.302732
     39 H19         5.6760   10.0700   -3.1930 hn        1 MOL      0.302732
     40 H20         6.7060    9.0460   -4.1110 hn        1 MOL      0.302732
     41 N4          3.8360    3.1550    1.9050 n         1 MOL     -0.338045
     42 C13         4.4000    2.6110    3.1110 c3        1 MOL      0.136956
     43 C14         5.0380    1.2390    2.6630 c         1 MOL      0.562936
     44 O6          4.6560    0.6030    1.6350 o         1 MOL     -0.511050
     45 C15         3.3780    2.4150    4.2090 c3        1 MOL     -0.141143
     46 C16         2.2750    1.4510    3.7520 c         1 MOL      0.726818
     47 O7          1.4040    1.8920    2.9610 o         1 MOL     -0.757019
     48 O8          2.1370    0.3550    4.2860 o         1 MOL     -0.757019
     49 H21         3.5270    2.4930    1.2100 hn        1 MOL      0.096905
     50 H22         5.1780    3.2450    3.5330 h1        1 MOL      0.052931
     51 H23         2.9880    3.3710    4.5630 hc        1 MOL      0.036368
     52 H24         3.8960    1.9470    5.0450 hc        1 MOL      0.036368
     53 N5          6.1240    0.8600    3.3390 n         1 MOL     -0.518207
     54 C17         7.0070   -0.2370    2.9860 c3        1 MOL     -0.071456
     55 C18         7.7590    0.0950    1.6830 c         1 MOL      0.538192
     56 O9          8.3050    1.1740    1.5450 o         1 MOL     -0.532826
     57 H25         6.5150    1.6010    3.9070 hn        1 MOL      0.316860
     58 H26         6.6300   -1.2300    3.1970 h1        1 MOL      0.109700
     59 H27         7.9070   -0.2790    3.5980 h1        1 MOL      0.109700
     60 N6          8.0260   -0.8400    0.7920 n         1 MOL     -0.480354
     61 C19         7.6480   -2.2620    0.7210 c3        1 MOL      0.170555
     62 C20         7.1810   -2.6840   -0.7010 c         1 MOL      0.600094
     63 O10         7.9370   -2.6960   -1.6310 o         1 MOL     -0.538849
     64 C21         8.8310   -3.0970    1.1820 c3        1 MOL     -0.255395
     65 C22         8.3710   -4.4730    1.4650 c         1 MOL      0.664501
     66 N7          9.2760   -5.3600    1.4570 n         1 MOL     -0.750424
     67 O11         7.2200   -4.7160    1.7280 o         1 MOL     -0.575512
     68 H28         8.8090   -0.7050    0.1590 hn        1 MOL      0.315731
     69 H29         6.8210   -2.4500    1.4180 h1        1 MOL      0.036729
     70 H30         9.1680   -2.6280    2.1130 hc        1 MOL      0.070227
     71 H31         9.6480   -3.2000    0.4750 hc        1 MOL      0.070227
     72 H32        10.2430   -5.0700    1.4640 hn        1 MOL      0.363149
     73 H33         8.9200   -6.3000    1.5070 hn        1 MOL      0.363149
     74 N8          5.8640   -3.0230   -0.8950 n         1 MOL     -0.531793
     75 C23         4.7840   -2.9640    0.0610 c3        1 MOL      0.057292
     76 C24         3.5200   -3.5230   -0.6260 c         1 MOL      0.605011
     77 O12         3.6120   -4.3260   -1.5680 o         1 MOL     -0.556754
     78 H34         5.6720   -3.0790   -1.8840 hn        1 MOL      0.323390
     79 H35         4.6000   -1.9120    0.2870 h1        1 MOL      0.026003
     80 H36         5.0410   -3.4860    0.9790 h1        1 MOL      0.026003
     81 N9          2.3320   -3.0590   -0.2670 n         1 MOL     -0.453283
     82 C25         1.0840   -3.4880   -0.8380 c3        1 MOL      0.248048
     83 C26        -0.0940   -2.4750   -0.5190 c         1 MOL      0.601418
     84 O13        -0.0560   -1.7820    0.5350 o         1 MOL     -0.646111
     85 C27         0.6490   -4.9360   -0.3830 c3        1 MOL     -0.402411
     86 C28        -0.3570   -5.5720   -1.3600 ca        1 MOL      0.099574
     87 C29        -1.7040   -5.7090   -1.0110 ca        1 MOL     -0.096242
     88 C30         0.1150   -6.0290   -2.5870 ca        1 MOL     -0.096242
     89 C31        -2.5730   -6.3200   -1.9140 ca        1 MOL     -0.365711
     90 C32        -0.7200   -6.6730   -3.4430 ca        1 MOL     -0.365711
     91 C33        -2.0750   -6.8150   -3.0960 ca        1 MOL      0.438955
     92 O14        -2.8510   -7.5660   -3.9500 oh        1 MOL     -0.531914
     93 H37         2.3370   -2.3040    0.4050 hn        1 MOL      0.200909
     94 H38         1.2180   -3.5280   -1.9200 h1        1 MOL      0.055091
     95 H39         0.1130   -4.8550    0.5700 hc        1 MOL      0.118035
     96 H40         1.5620   -5.5230   -0.4410 hc        1 MOL      0.118035
     97 H41        -2.0530   -5.4620   -0.0170 ha        1 MOL      0.143060
     98 H42         1.1540   -5.9290   -2.8570 ha        1 MOL      0.143060
     99 H43        -3.6000   -6.5020   -1.6210 ha        1 MOL      0.168029
    100 H44        -0.2900   -7.2680   -4.2330 ha        1 MOL      0.168029
    101 H45        -2.2620   -7.9440   -4.5960 ho        1 MOL      0.374746
    102 N10        -1.1460   -2.4650   -1.3020 n         1 MOL     -0.615924
    103 C34        -2.3270   -1.5960   -1.1950 c3        1 MOL      0.534424
    104 C35        -3.2530   -2.0120    0.0050 c         1 MOL      0.322708
    105 O15        -3.1880   -3.1550    0.5090 o         1 MOL     -0.570080
    106 C36        -2.9500   -1.5810   -2.6310 c3        1 MOL      0.066310
    107 C37        -3.5460   -2.9610   -3.0900 c3        1 MOL     -0.004673
    108 C38        -4.0320   -0.4820   -2.7260 c3        1 MOL     -0.353595
    109 C39        -4.2370   -3.0280   -4.4820 c3        1 MOL     -0.274289
    110 H46        -1.0910   -3.1550   -2.0340 hn        1 MOL      0.221745
    111 H47        -1.9710   -0.6190   -0.8530 h1        1 MOL     -0.036547
    112 H48        -2.0920   -1.2600   -3.2300 hc        1 MOL      0.017606
    113 H49        -4.2950   -3.3090   -2.3710 hc        1 MOL      0.056711
    114 H50        -2.7840   -3.7380   -3.0360 hc        1 MOL      0.056711
    115 H51        -5.0010   -0.8870   -2.4090 hc        1 MOL      0.090948
    116 H52        -3.7330    0.3900   -2.1470 hc        1 MOL      0.090948
    117 H53        -4.1100   -0.0770   -3.7340 hc        1 MOL      0.090948
    118 H54        -4.5710   -4.0220   -4.7740 hc        1 MOL      0.073217
    119 H55        -5.0840   -2.3470   -4.4030 hc        1 MOL      0.073217
    120 H56        -3.5910   -2.6430   -5.2760 hc        1 MOL      0.073217
    121 N11        -4.2920   -1.2620    0.3370 n         1 MOL     -0.351583
    122 C40        -5.5630   -1.6990    0.9630 c3        1 MOL      0.148342
    123 C41        -6.2110   -0.6530    1.8380 c         1 MOL      0.406629
    124 O16        -6.0260    0.5410    1.6030 o         1 MOL     -0.383080
    125 C42        -6.6210   -2.1860   -0.0970 c3        1 MOL     -0.151454
    126 O17        -7.2900   -1.1450   -0.6760 oh        1 MOL     -0.360202
    127 H57        -4.4040   -0.3250   -0.0270 hn        1 MOL      0.245170
    128 H58        -5.4290   -2.5760    1.5930 h1        1 MOL      0.045453
    129 H59        -7.2840   -2.9050    0.3750 h1        1 MOL      0.098032
    130 H60        -6.0850   -2.7450   -0.8660 h1        1 MOL      0.098032
    131 H61        -8.2110   -1.2310   -0.4210 ho        1 MOL      0.358857
    132 N12        -6.9910   -0.9810    2.8380 n         1 MOL     -0.502053
    133 C43        -7.7880   -0.0120    3.6770 c3        1 MOL      0.273438
    134 C44        -8.4040    1.1520    2.8750 c         1 MOL      0.475833
    135 O18        -8.0690    2.3220    3.0030 o         1 MOL     -0.496764
    136 C45        -6.8850    0.4730    4.8950 c3        1 MOL     -0.444354
    137 H62        -7.1800   -1.9380    3.1310 hn        1 MOL      0.284164
    138 H63        -8.6310   -0.5550    4.0990 h1        1 MOL      0.005569
    139 H64        -6.5140   -0.4200    5.3820 hc        1 MOL      0.133031
    140 H65        -6.0100    1.0270    4.5520 hc        1 MOL      0.133031
    141 H66        -7.5270    1.1040    5.5140 hc        1 MOL      0.133031
    142 N13        -9.3570    0.8100    2.0180 n         1 MOL     -0.393552
    143 C46       -10.1390    1.7050    1.1310 c3        1 MOL      0.094331
    144 C47        -9.3590    2.4250    0.0200 c         1 MOL      0.411009
    145 O19        -9.9350    3.1040   -0.7620 o         1 MOL     -0.453130
    146 C48       -11.0310    2.6220    1.9460 c3        1 MOL     -0.354515
    147 H67        -9.5880   -0.1700    2.0310 hn        1 MOL      0.215646
    148 H68       -10.7470    0.9460    0.6260 h1        1 MOL      0.072977
    149 H69       -11.3980    2.1000    2.8330 hc        1 MOL      0.116376
    150 H70       -10.4580    3.3920    2.4600 hc        1 MOL      0.116376
    151 H71       -11.7490    3.1270    1.2920 hc        1 MOL      0.116376
    152 N14        -8.0040    2.2390   -0.1480 n         1 MOL     -0.214724
    153 C49        -7.2520    2.7110   -1.3960 c3        1 MOL     -0.097823
    154 C50        -7.9510    2.2120   -2.6870 c         1 MOL      0.372882
    155 O20        -8.2550    2.9320   -3.6550 o         1 MOL     -0.488438
    156 C51        -5.6840    2.4640   -1.2950 c3        1 MOL      0.097748
    157 C52        -4.9600    3.5440   -0.4810 c3        1 MOL     -0.337322
    158 C53        -3.4680    3.3790   -0.7010 c         1 MOL      0.735422
    159 O21        -2.8220    2.3360   -0.5180 o         1 MOL     -0.712136
    160 O22        -2.8240    4.4540   -0.9120 o         1 MOL     -0.712136
    161 H72        -7.4760    1.6730    0.4890 hn        1 MOL      0.127996
    162 H73        -7.3780    3.7870   -1.5200 h1        1 MOL      0.114836
    163 H74        -5.2180    2.3090   -2.2630 hc        1 MOL      0.022570
    164 H75        -5.5490    1.5260   -0.7430 hc        1 MOL      0.022570
    165 H76        -5.0760    3.4480    0.6010 hc        1 MOL      0.098352
    166 H77        -5.2740    4.5190   -0.8380 hc        1 MOL      0.098352
    167 N15        -8.2250    0.9070   -2.7070 n         1 MOL     -0.156177
    168 C54        -9.2380    0.3690   -3.6290 c3        1 MOL     -0.212307
    169 H78       -10.1430    0.9730   -3.5670 h1        1 MOL      0.091527
    170 H79        -8.8540    0.3970   -4.6490 h1        1 MOL      0.091527
    171 H80        -9.4700   -0.6600   -3.3560 h1        1 MOL      0.091527
    172 H81        -7.9640    0.2560   -1.9760 hn        1 MOL      0.097143
    173 Ca1         0.1070   -0.5670    2.7890 Ca        1 MOL      1.795760
    174 O23        -0.9340    1.2460    0.8330 oh        1 MOL     -0.840089
    175 H82        -0.2010    1.8160    0.6010 ho        1 MOL      0.415549
    176 H83        -1.6220    1.4590    0.2040 ho        1 MOL      0.415549
    177 O24        -1.9100    1.0110    3.7080 oh        1 MOL     -0.840089
    178 H84        -2.5810    1.0750    4.3920 ho        1 MOL      0.415549
    179 H85        -1.9170    1.8720    3.2860 ho        1 MOL      0.415549
    180 O25         1.3620   -2.9990    3.1990 oh        1 MOL     -0.840089
    181 O26         2.2050   -0.3080    1.1170 oh        1 MOL     -0.840089
    182 H86         2.3090   -3.1060    3.1790 ho        1 MOL      0.415549
    183 H87         1.9950   -0.1630    0.1950 ho        1 MOL      0.415549
    184 H88         1.0290   -3.8540    3.4480 ho        1 MOL      0.415549
    185 H89         3.1370   -0.1150    1.1790 ho        1 MOL      0.415549
    186 O27        -1.9310   -2.4760    2.8210 oh        1 MOL     -0.840089
    187 H90        -2.3490   -2.8550    2.0480 ho        1 MOL      0.415549
    188 H91        -2.2150   -3.0340    3.5420 ho        1 MOL      0.415549
    189 O28        -0.3200   -1.1530    5.3620 oh        1 MOL     -0.840089
    190 H92         0.0030   -1.9360    5.7980 ho        1 MOL      0.415549
    191 H93        -0.6410   -0.5890    6.0640 ho        1 MOL      0.415549
@<TRIPOS>BOND
     1    1    2 1   
     2    1    4 1   
     3    1    5 1   
     4    1    6 1   
     5    2    3 2   
     6    2    7 1   
     7    7    8 1   
     8    7   15 1   
     9    8    9 1   
    10    8   11 1   
    11    8   16 1   
    12    9   10 2   
    13    9   19 1   
    14   11   12 1   
    15   11   17 1   
    16   11   18 1   
    17   12   13 1   
    18   12   14 1   
    19   19   20 1   
    20   19   28 1   
    21   20   21 1   
    22   20   23 1   
    23   20   29 1   
    24   21   22 2   
    25   21   41 1   
    26   23   24 1   
    27   23   30 1   
    28   23   31 1   
    29   24   25 1   
    30   24   32 1   
    31   24   33 1   
    32   25   26 1   
    33   25   34 1   
    34   25   35 1   
    35   26   27 1   
    36   26   36 1   
    37   26   37 1   
    38   27   38 1   
    39   27   39 1   
    40   27   40 1   
    41   41   42 1   
    42   41   49 1   
    43   42   43 1   
    44   42   45 1   
    45   42   50 1   
    46   43   44 2   
    47   43   53 1   
    48   45   46 1   
    49   45   51 1   
    50   45   52 1   
    51   46   47 1   
    52   46   48 1   
    53   53   54 1   
    54   53   57 1   
    55   54   55 1   
    56   54   58 1   
    57   54   59 1   
    58   55   56 2   
    59   55   60 1   
    60   60   61 1   
    61   60   68 1   
    62   61   62 1   
    63   61   64 1   
    64   61   69 1   
    65   62   63 2   
    66   62   74 1   
    67   64   65 1   
    68   64   70 1   
    69   64   71 1   
    70   65   66 1   
    71   65   67 2   
    72   66   72 1   
    73   66   73 1   
    74   74   75 1   
    75   74   78 1   
    76   75   76 1   
    77   75   79 1   
    78   75   80 1   
    79   76   77 2   
    80   76   81 1   
    81   81   82 1   
    82   81   93 1   
    83   82   83 1   
    84   82   85 1   
    85   82   94 1   
    86   83   84 2   
    87   83  102 1   
    88   85   86 1   
    89   85   95 1   
    90   85   96 1   
    91   86   87 ar  
    92   86   88 ar  
    93   87   89 ar  
    94   87   97 1   
    95   88   90 ar  
    96   88   98 1   
    97   89   91 ar  
    98   89   99 1   
    99   90   91 ar  
   100   90  100 1   
   101   91   92 1   
   102   92  101 1   
   103  102  103 1   
   104  102  110 1   
   105  103  104 1   
   106  103  106 1   
   107  103  111 1   
   108  104  105 2   
   109  104  121 1   
   110  106  107 1   
   111  106  108 1   
   112  106  112 1   
   113  107  109 1   
   114  107  113 1   
   115  107  114 1   
   116  108  115 1   
   117  108  116 1   
   118  108  117 1   
   119  109  118 1   
   120  109  119 1   
   121  109  120 1   
   122  121  122 1   
   123  121  127 1   
   124  122  123 1   
   125  122  125 1   
   126  122  128 1   
   127  123  124 2   
   128  123  132 1   
   129  125  126 1   
   130  125  129 1   
   131  125  130 1   
   132  126  131 1   
   133  132  133 1   
   134  132  137 1   
   135  133  134 1   
   136  133  136 1   
   137  133  138 1   
   138  134  135 2   
   139  134  142 1   
   140  136  139 1   
   141  136  140 1   
   142  136  141 1   
   143  142  143 1   
   144  142  147 1   
   145  143  144 1   
   146  143  146 1   
   147  143  148 1   
   148  144  145 2   
   149  144  152 1   
   150  146  149 1   
   151  146  150 1   
   152  146  151 1   
   153  152  153 1   
   154  152  161 1   
   155  153  154 1   
   156  153  156 1   
   157  153  162 1   
   158  154  155 2   
   159  154  167 1   
   160  156  157 1   
   161  156  163 1   
   162  156  164 1   
   163  157  158 1   
   164  157  165 1   
   165  157  166 1   
   166  158  159 1   
   167  158  160 1   
   168  167  168 1   
   169  167  172 1   
   170  168  169 1   
   171  168  170 1   
   172  168  171 1   
   173  174  175 1   
   174  174  176 1   
   175  177  178 1   
   176  177  179 1   
   177  180  182 1   
   178  180  184 1   
   179  181  183 1   
   180  181  185 1   
   181  186  187 1   
   182  186  188 1   
   183  189  190 1   
   184  189  191 1   
@<TRIPOS>SUBSTRUCTURE
     1 MOL         1 TEMP              0 ****  ****    0 ROOT
