@<TRIPOS>MOLECULE
MOL
  191   184     1     0     0
SMALL
resp


@<TRIPOS>ATOM
      1 C1          5.2270   -0.2850    5.4840 c3        1 MOL     -0.571728
      2 C2          4.1050   -0.3520    4.3540 c         1 MOL      0.593192
      3 O1          2.8630   -0.2520    4.6070 o         1 MOL     -0.578157
      4 H1          5.3240   -1.2620    5.9580 hc        1 MOL      0.155132
      5 H2          6.1800   -0.0040    5.0350 hc        1 MOL      0.155132
      6 H3          4.9460    0.4560    6.2320 hc        1 MOL      0.155132
      7 N1          4.5200   -0.3410    3.0950 n         1 MOL     -0.319808
      8 C3          3.6210   -0.4620    1.8780 c3        1 MOL      0.041445
      9 C4          3.4170   -1.9370    1.4160 c         1 MOL      0.231137
     10 O2          2.3470   -2.3180    1.0120 o         1 MOL     -0.436147
     11 C5          4.2690    0.3380    0.7530 c3        1 MOL     -0.131716
     12 C6          5.7310    0.0870    0.5220 c         1 MOL      0.493705
     13 O3          5.9660   -1.0350    0.0630 o         1 MOL     -0.615968
     14 O4          6.6400    0.9530    0.8630 o         1 MOL     -0.615968
     15 H4          5.5060   -0.3030    2.9080 hn        1 MOL      0.255177
     16 H5          2.7090    0.0700    2.1630 h1        1 MOL      0.146958
     17 H6          4.1570    1.4240    0.8520 hc        1 MOL     -0.001281
     18 H7          3.6960    0.1530   -0.1520 hc        1 MOL     -0.001281
     19 N2          4.5140   -2.6910    1.6280 n         1 MOL     -0.271792
     20 C7          4.7490   -4.0600    1.2360 c3        1 MOL     -0.029171
     21 C8          5.0050   -4.1400   -0.2540 c         1 MOL      0.654080
     22 O5          6.0250   -4.6760   -0.7230 o         1 MOL     -0.586475
     23 C9          5.7790   -4.6530    2.1340 c3        1 MOL     -0.067237
     24 C10         5.1730   -4.7720    3.5410 c3        1 MOL      0.164927
     25 C11         6.1090   -5.6540    4.4730 c3        1 MOL     -0.124129
     26 C12         7.2960   -4.9020    5.0170 c3        1 MOL      0.079926
     27 N3          8.6160   -5.5350    4.8470 n4        1 MOL     -0.382169
     28 H8          5.2140   -2.2360    2.1920 hn        1 MOL      0.286347
     29 H9          3.8150   -4.6120    1.3600 h1        1 MOL      0.055591
     30 H10         6.6850   -4.0320    2.1380 hc        1 MOL      0.037258
     31 H11         5.9700   -5.6470    1.7340 hc        1 MOL      0.037258
     32 H12         4.2410   -5.3170    3.5100 hc        1 MOL     -0.030999
     33 H13         5.0090   -3.7990    3.9950 hc        1 MOL     -0.030999
     34 H14         6.4560   -6.4690    3.8410 hc        1 MOL      0.056890
     35 H15         5.5010   -5.9860    5.3110 hc        1 MOL      0.056890
     36 H16         7.1430   -4.5510    6.0340 hx        1 MOL      0.057130
     37 H17         7.2680   -4.0170    4.3860 hx        1 MOL      0.057130
     38 H18         9.2620   -5.0050    5.3990 hn        1 MOL      0.339635
     39 H19         8.6600   -6.4530    5.2570 hn        1 MOL      0.339635
     40 H20         8.9400   -5.5330    3.8860 hn        1 MOL      0.339635
     41 N4          4.1040   -3.6000   -1.0800 n         1 MOL     -0.535958
     42 C13         4.1810   -3.6920   -2.5320 c3        1 MOL      0.114636
     43 C14         4.3620   -2.2990   -3.2360 c         1 MOL      0.511649
     44 O6          4.2090   -2.2610   -4.4720 o         1 MOL     -0.534116
     45 C15         2.9180   -4.4020   -3.1250 c3        1 MOL     -0.310943
     46 C16         1.6510   -3.5520   -2.7730 c         1 MOL      0.685068
     47 O7          1.4470   -3.3810   -1.5700 o         1 MOL     -0.674146
     48 O8          0.8130   -3.1110   -3.6340 o         1 MOL     -0.674146
     49 H21         3.3380   -3.1030   -0.6490 hn        1 MOL      0.232211
     50 H22         5.0270   -4.2790   -2.9060 h1        1 MOL      0.104784
     51 H23         2.8510   -5.4540   -2.8820 hc        1 MOL      0.089213
     52 H24         2.9240   -4.4470   -4.2180 hc        1 MOL      0.089213
     53 N5          4.7910   -1.2940   -2.4860 n         1 MOL     -0.338613
     54 C17         4.9490   -0.0070   -2.9590 c3        1 MOL      0.025278
     55 C18         6.2570    0.0240   -3.8960 c         1 MOL      0.471570
     56 O9          7.0090   -0.9600   -4.1550 o         1 MOL     -0.484195
     57 H25         5.1200   -1.5550   -1.5750 hn        1 MOL      0.289801
     58 H26         5.1130    0.7000   -2.1480 h1        1 MOL      0.098367
     59 H27         4.0290    0.2630   -3.4690 h1        1 MOL      0.098367
     60 N6          6.4340    1.2260   -4.4820 n         1 MOL     -0.485191
     61 C19         5.7590    2.3950   -3.9370 c3        1 MOL      0.136722
     62 C20         6.2390    2.8500   -2.5130 c         1 MOL      0.387130
     63 O10         7.4040    2.8330   -2.1970 o         1 MOL     -0.461939
     64 C21         5.9280    3.4580   -4.9630 c3        1 MOL     -0.327999
     65 C22         5.0150    4.5870   -4.6240 c         1 MOL      0.690161
     66 N7          3.8840    4.6960   -5.2700 n         1 MOL     -0.792996
     67 O11         5.3400    5.3940   -3.7930 o         1 MOL     -0.540769
     68 H28         7.2460    1.3560   -5.0640 hn        1 MOL      0.329992
     69 H29         4.6910    2.1850   -3.8500 h1        1 MOL      0.003534
     70 H30         5.7580    3.1680   -6.0020 hc        1 MOL      0.104294
     71 H31         6.9800    3.7350   -4.9700 hc        1 MOL      0.104294
     72 H32         3.8170    4.0720   -6.0610 hn        1 MOL      0.363871
     73 H33         3.2480    5.4760   -5.2300 hn        1 MOL      0.363871
     74 N8          5.3520    3.3540   -1.6370 n         1 MOL     -0.298933
     75 C23         3.9410    3.2420   -1.6400 c3        1 MOL     -0.036465
     76 C24         3.1940    3.9570   -0.4930 c         1 MOL      0.796744
     77 O12         3.8560    4.2760    0.4680 o         1 MOL     -0.528817
     78 H34         5.6990    3.7440   -0.7710 hn        1 MOL      0.279136
     79 H35         3.6690    2.1850   -1.6690 h1        1 MOL      0.006746
     80 H36         3.5820    3.6410   -2.5910 h1        1 MOL      0.006746
     81 N9          1.8600    4.2030   -0.6180 n         1 MOL     -0.887662
     82 C25         0.8500    4.5630    0.4260 c3        1 MOL      0.698200
     83 C26        -0.2210    3.4930    0.5180 c         1 MOL      0.296895
     84 O13        -0.2240    2.4430   -0.1700 o         1 MOL     -0.507249
     85 C27         0.2380    5.9060    0.1280 c3        1 MOL     -0.391751
     86 C28        -0.2340    6.8020    1.2430 ca        1 MOL      0.196575
     87 C29        -1.3120    7.7020    1.0240 ca        1 MOL     -0.246793
     88 C30         0.3440    6.7540    2.5140 ca        1 MOL     -0.246793
     89 C31        -1.8460    8.5280    2.0780 ca        1 MOL     -0.215639
     90 C32        -0.1300    7.5850    3.5520 ca        1 MOL     -0.215639
     91 C33        -1.2500    8.4510    3.3550 ca        1 MOL      0.321194
     92 O14        -1.5350    9.2700    4.3760 oh        1 MOL     -0.471166
     93 H37         1.4460    3.9480   -1.4980 hn        1 MOL      0.360888
     94 H38         1.3280    4.6180    1.4110 h1        1 MOL     -0.094185
     95 H39        -0.5420    5.8100   -0.6290 hc        1 MOL      0.122950
     96 H40         1.0570    6.5500   -0.1840 hc        1 MOL      0.122950
     97 H41        -1.7170    7.8130    0.0360 ha        1 MOL      0.165938
     98 H42         1.1030    5.9980    2.6740 ha        1 MOL      0.165938
     99 H43        -2.6810    9.1660    1.8680 ha        1 MOL      0.149537
    100 H44         0.3240    7.5440    4.5370 ha        1 MOL      0.149537
    101 H45        -0.9260    9.1230    5.1090 ho        1 MOL      0.353514
    102 N10        -1.2500    3.7520    1.3100 n         1 MOL     -0.161407
    103 C34        -2.5320    3.0690    1.5890 c3        1 MOL     -0.483749
    104 C35        -3.5740    3.4050    0.4280 c         1 MOL      0.825431
    105 O15        -3.4950    4.4380   -0.2310 o         1 MOL     -0.543114
    106 C36        -3.0130    3.2230    3.0290 c3        1 MOL      0.096346
    107 C37        -2.1760    2.3310    3.9340 c3        1 MOL      0.080344
    108 C38        -2.9040    4.7120    3.3630 c3        1 MOL      0.021883
    109 C39        -2.8580    2.2520    5.2920 c3        1 MOL     -0.336148
    110 H46        -1.1110    4.6050    1.8250 hn        1 MOL      0.158738
    111 H47        -2.4540    1.9950    1.4090 h1        1 MOL      0.103751
    112 H48        -4.0410    2.8550    3.1220 hc        1 MOL      0.041124
    113 H49        -1.1540    2.6810    4.0470 hc        1 MOL      0.026959
    114 H50        -2.2010    1.3510    3.4650 hc        1 MOL      0.026959
    115 H51        -3.4870    5.4050    2.7560 hc        1 MOL     -0.000425
    116 H52        -3.2410    4.9250    4.3770 hc        1 MOL     -0.000425
    117 H53        -1.9160    5.1540    3.2780 hc        1 MOL     -0.000425
    118 H54        -3.0460    3.2720    5.6370 hc        1 MOL      0.085406
    119 H55        -3.9000    1.9120    5.2870 hc        1 MOL      0.085406
    120 H56        -2.2530    1.6390    5.9590 hc        1 MOL      0.085406
    121 N11        -4.5410    2.4780    0.2650 n         1 MOL     -0.600755
    122 C40        -5.6940    2.6690   -0.5620 c3        1 MOL      0.034597
    123 C41        -5.9810    1.4400   -1.4300 c         1 MOL      0.717471
    124 O16        -5.2700    0.3980   -1.2620 o         1 MOL     -0.587793
    125 C42        -6.9040    2.9450    0.3500 c3        1 MOL      0.117353
    126 O17        -7.4600    2.0840    1.2990 oh        1 MOL     -0.632689
    127 H57        -4.4490    1.6700    0.8490 hn        1 MOL      0.395826
    128 H58        -5.5760    3.5620   -1.1840 h1        1 MOL      0.052450
    129 H59        -7.7520    3.2660   -0.2550 h1        1 MOL      0.015535
    130 H60        -6.6450    3.8290    0.9340 h1        1 MOL      0.015535
    131 H61        -8.2360    2.5270    1.6580 ho        1 MOL      0.433880
    132 N12        -6.8710    1.6070   -2.4240 n         1 MOL     -0.453892
    133 C43        -7.1070    0.6350   -3.4270 c3        1 MOL      0.019155
    134 C44        -7.7520   -0.6740   -2.9650 c         1 MOL      0.497759
    135 O18        -7.5240   -1.7160   -3.5180 o         1 MOL     -0.430674
    136 C45        -5.8720    0.4290   -4.3070 c3        1 MOL     -0.291860
    137 H62        -7.3590    2.4950   -2.4930 hn        1 MOL      0.286565
    138 H63        -7.8980    1.0340   -4.0560 h1        1 MOL      0.081438
    139 H64        -5.2450   -0.2380   -3.7040 hc        1 MOL      0.101301
    140 H65        -6.0040   -0.0680   -5.2630 hc        1 MOL      0.101301
    141 H66        -5.3640    1.3880   -4.4230 hc        1 MOL      0.101301
    142 N13        -8.5990   -0.5030   -1.9570 n         1 MOL     -0.509849
    143 C46        -9.4640   -1.5740   -1.4160 c3        1 MOL      0.462619
    144 C47        -8.7530   -2.8960   -1.2090 c         1 MOL      0.267812
    145 O19        -9.2640   -4.0020   -1.4940 o         1 MOL     -0.467453
    146 C48       -10.8410   -1.6760   -2.0720 c3        1 MOL     -0.286768
    147 H67        -8.5440    0.3880   -1.4800 hn        1 MOL      0.224354
    148 H68        -9.7020   -1.2210   -0.4110 h1        1 MOL     -0.036310
    149 H69       -10.6560   -2.2100   -3.0050 hc        1 MOL      0.070660
    150 H70       -11.5300   -2.2090   -1.4150 hc        1 MOL      0.070660
    151 H71       -11.1500   -0.6510   -2.2730 hc        1 MOL      0.070660
    152 N14        -7.6120   -2.8340   -0.5240 n         1 MOL     -0.327587
    153 C49        -6.8140   -3.9580    0.0090 c3        1 MOL      0.115705
    154 C50        -7.1740   -4.4860    1.3280 c         1 MOL      0.447791
    155 O20        -7.1700   -5.6680    1.5990 o         1 MOL     -0.512821
    156 C51        -5.3430   -3.5860   -0.1330 c3        1 MOL      0.230994
    157 C52        -4.4030   -4.7480    0.0820 c3        1 MOL     -0.208376
    158 C53        -2.9700   -4.3070   -0.2580 c         1 MOL      0.816003
    159 O21        -2.5490   -4.4750   -1.4050 o         1 MOL     -0.773340
    160 O22        -2.3290   -3.6950    0.5960 o         1 MOL     -0.773340
    161 H72        -7.1800   -1.9450   -0.3400 hn        1 MOL      0.197671
    162 H73        -6.8670   -4.8560   -0.6180 h1        1 MOL      0.077183
    163 H74        -5.0370   -2.8100    0.5600 hc        1 MOL     -0.064554
    164 H75        -5.1950   -3.2240   -1.1500 hc        1 MOL     -0.064554
    165 H76        -4.6870   -5.5890   -0.5570 hc        1 MOL      0.028059
    166 H77        -4.4210   -5.1870    1.0790 hc        1 MOL      0.028059
    167 N15        -7.5700   -3.5550    2.2160 n         1 MOL     -0.254111
    168 C54        -8.1030   -3.9560    3.5630 c3        1 MOL     -0.406655
    169 H78        -7.2710   -4.1270    4.2460 h1        1 MOL      0.156579
    170 H79        -8.7360   -3.1600    3.9560 h1        1 MOL      0.156579
    171 H80        -8.6870   -4.8710    3.4660 h1        1 MOL      0.156579
    172 H81        -7.6420   -2.6000    1.9070 hn        1 MOL      0.201373
    173 Ca1        -0.1260   -2.4730    0.1310 Ca        1 MOL      1.765891
    174 O23        -1.2540   -2.3250   -2.2970 oh        1 MOL     -0.844323
    175 H82        -0.6720   -2.5780   -3.0110 ho        1 MOL      0.411736
    176 H83        -1.8220   -3.0830   -2.1510 ho        1 MOL      0.411736
    177 O24        -0.7660   -0.2780    1.9900 oh        1 MOL     -0.844323
    178 H84        -0.3430    0.5160    2.3070 ho        1 MOL      0.411736
    179 H85        -1.6850   -0.1840    2.2240 ho        1 MOL      0.411736
    180 O25        -2.6690   -0.6510   -0.6890 oh        1 MOL     -0.844323
    181 H86        -3.6280   -0.6830   -0.6940 ho        1 MOL      0.411736
    182 H87        -2.4160   -1.0570   -1.5210 ho        1 MOL      0.411736
    183 O26         0.5220   -0.2060   -0.9630 oh        1 MOL     -0.844323
    184 H88         0.8650    0.3030   -1.6930 ho        1 MOL      0.411736
    185 H89         0.2150    0.4550   -0.3340 ho        1 MOL      0.411736
    186 O27         0.2960   -3.1740    2.7460 oh        1 MOL     -0.844323
    187 H90         0.6680   -2.9680    3.6060 ho        1 MOL      0.411736
    188 H91         0.6730   -4.0220    2.5220 ho        1 MOL      0.411736
    189 O28         0.6070   -5.1060    0.8000 oh        1 MOL     -0.844323
    190 H92         1.5090   -5.4300    0.7000 ho        1 MOL      0.411736
    191 H93         0.0640   -5.8720    0.6460 ho        1 MOL      0.411736
@<TRIPOS>BOND
     1    1    2 1   
     2    1    4 1   
     3    1    5 1   
     4    1    6 1   
     5    2    3 2   
     6    2    7 1   
     7    7    8 1   
     8    7   15 1   
     9    8    9 1   
    10    8   11 1   
    11    8   16 1   
    12    9   10 2   
    13    9   19 1   
    14   11   12 1   
    15   11   17 1   
    16   11   18 1   
    17   12   13 1   
    18   12   14 1   
    19   19   20 1   
    20   19   28 1   
    21   20   21 1   
    22   20   23 1   
    23   20   29 1   
    24   21   22 2   
    25   21   41 1   
    26   23   24 1   
    27   23   30 1   
    28   23   31 1   
    29   24   25 1   
    30   24   32 1   
    31   24   33 1   
    32   25   26 1   
    33   25   34 1   
    34   25   35 1   
    35   26   27 1   
    36   26   36 1   
    37   26   37 1   
    38   27   38 1   
    39   27   39 1   
    40   27   40 1   
    41   41   42 1   
    42   41   49 1   
    43   42   43 1   
    44   42   45 1   
    45   42   50 1   
    46   43   44 2   
    47   43   53 1   
    48   45   46 1   
    49   45   51 1   
    50   45   52 1   
    51   46   47 1   
    52   46   48 1   
    53   53   54 1   
    54   53   57 1   
    55   54   55 1   
    56   54   58 1   
    57   54   59 1   
    58   55   56 2   
    59   55   60 1   
    60   60   61 1   
    61   60   68 1   
    62   61   62 1   
    63   61   64 1   
    64   61   69 1   
    65   62   63 2   
    66   62   74 1   
    67   64   65 1   
    68   64   70 1   
    69   64   71 1   
    70   65   66 1   
    71   65   67 2   
    72   66   72 1   
    73   66   73 1   
    74   74   75 1   
    75   74   78 1   
    76   75   76 1   
    77   75   79 1   
    78   75   80 1   
    79   76   77 2   
    80   76   81 1   
    81   81   82 1   
    82   81   93 1   
    83   82   83 1   
    84   82   85 1   
    85   82   94 1   
    86   83   84 2   
    87   83  102 1   
    88   85   86 1   
    89   85   95 1   
    90   85   96 1   
    91   86   87 ar  
    92   86   88 ar  
    93   87   89 ar  
    94   87   97 1   
    95   88   90 ar  
    96   88   98 1   
    97   89   91 ar  
    98   89   99 1   
    99   90   91 ar  
   100   90  100 1   
   101   91   92 1   
   102   92  101 1   
   103  102  103 1   
   104  102  110 1   
   105  103  104 1   
   106  103  106 1   
   107  103  111 1   
   108  104  105 2   
   109  104  121 1   
   110  106  107 1   
   111  106  108 1   
   112  106  112 1   
   113  107  109 1   
   114  107  113 1   
   115  107  114 1   
   116  108  115 1   
   117  108  116 1   
   118  108  117 1   
   119  109  118 1   
   120  109  119 1   
   121  109  120 1   
   122  121  122 1   
   123  121  127 1   
   124  122  123 1   
   125  122  125 1   
   126  122  128 1   
   127  123  124 2   
   128  123  132 1   
   129  125  126 1   
   130  125  129 1   
   131  125  130 1   
   132  126  131 1   
   133  132  133 1   
   134  132  137 1   
   135  133  134 1   
   136  133  136 1   
   137  133  138 1   
   138  134  135 2   
   139  134  142 1   
   140  136  139 1   
   141  136  140 1   
   142  136  141 1   
   143  142  143 1   
   144  142  147 1   
   145  143  144 1   
   146  143  146 1   
   147  143  148 1   
   148  144  145 2   
   149  144  152 1   
   150  146  149 1   
   151  146  150 1   
   152  146  151 1   
   153  152  153 1   
   154  152  161 1   
   155  153  154 1   
   156  153  156 1   
   157  153  162 1   
   158  154  155 2   
   159  154  167 1   
   160  156  157 1   
   161  156  163 1   
   162  156  164 1   
   163  157  158 1   
   164  157  165 1   
   165  157  166 1   
   166  158  159 1   
   167  158  160 1   
   168  167  168 1   
   169  167  172 1   
   170  168  169 1   
   171  168  170 1   
   172  168  171 1   
   173  174  175 1   
   174  174  176 1   
   175  177  178 1   
   176  177  179 1   
   177  180  181 1   
   178  180  182 1   
   179  183  184 1   
   180  183  185 1   
   181  186  187 1   
   182  186  188 1   
   183  189  190 1   
   184  189  191 1   
@<TRIPOS>SUBSTRUCTURE
     1 MOL         1 TEMP              0 ****  ****    0 ROOT
