@<TRIPOS>MOLECULE
MOL
  204   195     1     0     0
SMALL
resp


@<TRIPOS>ATOM
      1 C1          9.3370    6.7110   -4.7910 c3        1 MOL     -0.406937
      2 C2          8.6360    6.2830   -3.4390 c         1 MOL      0.632240
      3 O1          9.2520    5.5830   -2.5790 o         1 MOL     -0.595281
      4 H1         10.3910    6.9180   -4.6030 hc        1 MOL      0.106587
      5 H2          9.2490    5.9040   -5.5180 hc        1 MOL      0.106587
      6 H3          8.8550    7.6070   -5.1830 hc        1 MOL      0.106587
      7 N1          7.4880    6.8610   -3.1090 n         1 MOL     -0.453306
      8 C3          6.8570    6.5390   -1.8220 c3        1 MOL      0.137938
      9 C4          6.0730    5.2020   -1.6950 c         1 MOL      0.579161
     10 O2          5.6860    4.6720   -2.7020 o         1 MOL     -0.571747
     11 C5          5.9070    7.7330   -1.3150 c3        1 MOL     -0.087593
     12 C6          6.5430    9.1090   -1.4450 c         1 MOL      0.654089
     13 O3          5.8680    9.9520   -2.1020 o         1 MOL     -0.645858
     14 O4          7.6420    9.2240   -0.9020 o         1 MOL     -0.645858
     15 H4          6.9530    7.4390   -3.7500 hn        1 MOL      0.297372
     16 H5          7.6480    6.5760   -1.0780 h1        1 MOL      0.050077
     17 H6          5.6960    7.5100   -0.2600 hc        1 MOL     -0.000946
     18 H7          4.9540    7.6880   -1.8350 hc        1 MOL     -0.000946
     19 N2          5.8750    4.6530   -0.4880 n         1 MOL     -0.671132
     20 C7          5.3040    3.2830   -0.3430 c3        1 MOL      0.294563
     21 C8          4.1580    3.3350    0.6930 c         1 MOL      0.578051
     22 O5          4.3770    3.6820    1.8220 o         1 MOL     -0.541471
     23 C9          6.5070    2.4510    0.1440 c3        1 MOL     -0.078170
     24 C10         6.3410    0.9500   -0.3420 c3        1 MOL      0.018744
     25 C11         7.4450    0.0700    0.2770 c3        1 MOL     -0.256141
     26 C12         7.5100   -1.3160   -0.4090 c3        1 MOL      0.252571
     27 N3          8.4720   -2.2060    0.2120 n4        1 MOL     -0.505542
     28 H8          6.0520    5.0780    0.4050 hn        1 MOL      0.325076
     29 H9          4.9740    2.8500   -1.2940 h1        1 MOL      0.013842
     30 H10         6.5780    2.5220    1.2300 hc        1 MOL      0.045851
     31 H11         7.4360    2.9170   -0.1910 hc        1 MOL      0.045851
     32 H12         6.4390    0.8600   -1.4290 hc        1 MOL      0.022106
     33 H13         5.2990    0.6760   -0.1890 hc        1 MOL      0.022106
     34 H14         7.1210   -0.0820    1.3030 hc        1 MOL      0.090775
     35 H15         8.4340    0.5170    0.2010 hc        1 MOL      0.090775
     36 H16         7.7770   -1.3010   -1.4670 hx        1 MOL      0.039303
     37 H17         6.5050   -1.7240   -0.3760 hx        1 MOL      0.039303
     38 H18         9.4240   -1.8620    0.1590 hn        1 MOL      0.352694
     39 H19         8.1830   -2.4090    1.1600 hn        1 MOL      0.352694
     40 H20         8.4640   -3.1180   -0.2420 hn        1 MOL      0.352694
     41 N4          2.9940    2.8070    0.3370 n         1 MOL     -0.677137
     42 C13         1.8210    2.6090    1.2180 c3        1 MOL      0.336476
     43 C14         1.1180    1.2910    0.7730 c         1 MOL      0.271632
     44 O6          0.3870    1.2340   -0.2260 o         1 MOL     -0.481766
     45 C15         0.8930    3.8300    1.0050 c3        1 MOL     -0.168140
     46 C16        -0.4340    3.7300    1.7570 c         1 MOL      0.672975
     47 O7         -1.3070    4.6020    1.4040 o         1 MOL     -0.705999
     48 O8         -0.5480    2.9660    2.7570 o         1 MOL     -0.705999
     49 H21         2.8520    2.5090   -0.6210 hn        1 MOL      0.347891
     50 H22         2.0500    2.5800    2.2810 h1        1 MOL      0.043780
     51 H23         0.6090    3.9040   -0.0490 hc        1 MOL      0.085225
     52 H24         1.4200    4.6940    1.4060 hc        1 MOL      0.085225
     53 N5          1.4630    0.1780    1.4100 n         1 MOL     -0.213962
     54 C17         2.5570    0.0820    2.3970 c3        1 MOL     -0.340884
     55 C18         3.3670   -1.1660    2.2380 c         1 MOL      0.731168
     56 O9          4.1950   -1.0720    1.3520 o         1 MOL     -0.546163
     57 H25         1.1180   -0.7050    1.0790 hn        1 MOL      0.268441
     58 H26         2.1040   -0.0420    3.3800 h1        1 MOL      0.135039
     59 H27         3.2360    0.9260    2.4360 h1        1 MOL      0.135039
     60 N6          3.1640   -2.2400    3.0330 n         1 MOL     -0.531590
     61 C19         4.1920   -3.2570    3.2580 c3        1 MOL     -0.150482
     62 C20         3.6600   -4.6330    2.8470 c         1 MOL      0.585107
     63 O10         2.4560   -4.8330    2.7730 o         1 MOL     -0.443647
     64 C21         4.6660   -3.2090    4.7300 c3        1 MOL      0.095271
     65 C22         3.5710   -3.3570    5.7810 c         1 MOL      0.683843
     66 O11         3.6720   -4.3950    6.4490 o         1 MOL     -0.696670
     67 O12         2.8490   -2.3540    6.0080 o         1 MOL     -0.696670
     68 H28         2.4270   -2.1580    3.7130 hn        1 MOL      0.282568
     69 H29         4.9930   -3.0610    2.5350 h1        1 MOL      0.036915
     70 H30         5.1480   -2.2550    4.9540 hc        1 MOL     -0.037081
     71 H31         5.4780   -3.9250    4.8510 hc        1 MOL     -0.037081
     72 N7          4.5810   -5.6130    2.6230 n         1 MOL     -0.415183
     73 C23         4.3620   -7.0320    2.4450 c3        1 MOL     -0.159398
     74 C24         3.7030   -7.3440    1.1940 c         1 MOL      0.523402
     75 O13         2.7220   -8.1400    1.2730 o         1 MOL     -0.549620
     76 H32         5.5610   -5.3960    2.5200 hn        1 MOL      0.264236
     77 H33         3.8590   -7.4800    3.3010 h1        1 MOL      0.121002
     78 H34         5.3030   -7.5530    2.2760 h1        1 MOL      0.121002
     79 N8          3.9950   -6.6770    0.0600 n         1 MOL     -0.264582
     80 C25         3.1170   -6.6300   -1.1600 c3        1 MOL     -0.168110
     81 C26         2.7800   -5.1310   -1.4830 c         1 MOL      0.513731
     82 O14         3.6390   -4.2780   -1.2970 o         1 MOL     -0.497132
     83 C27         3.7790   -7.2360   -2.3380 c3        1 MOL      0.272138
     84 C28         5.0980   -6.5990   -2.7690 c3        1 MOL     -0.241313
     85 O15         4.1110   -8.6180   -2.0560 oh        1 MOL     -0.594069
     86 H35         4.7290   -5.9870    0.0600 hn        1 MOL      0.217398
     87 H36         2.1590   -7.0980   -0.9230 h1        1 MOL      0.110873
     88 H37         3.1200   -7.1250   -3.1970 h1        1 MOL      0.019943
     89 H38         3.5390   -9.2380   -2.5180 ho        1 MOL      0.393888
     90 H39         4.9610   -5.5550   -3.0320 hc        1 MOL      0.066565
     91 H40         5.8200   -6.4340   -1.9710 hc        1 MOL      0.066565
     92 H41         5.5080   -7.0770   -3.6590 hc        1 MOL      0.066565
     93 N9          1.6500   -4.9650   -2.2120 n         1 MOL     -0.422576
     94 C29         1.2040   -3.6430   -2.7720 c3        1 MOL     -0.105353
     95 C30        -0.2300   -3.3310   -2.3440 c         1 MOL      0.716379
     96 O16        -0.5220   -2.1450   -2.1560 o         1 MOL     -0.598286
     97 C31         1.5130   -3.3690   -4.2820 c3        1 MOL      0.070256
     98 C32         0.6320   -4.1840   -5.2960 c3        1 MOL      0.101691
     99 C33         3.0410   -3.6120   -4.4200 c3        1 MOL     -0.102427
    100 C34         1.0460   -3.8780   -6.7470 c3        1 MOL     -0.262474
    101 H42         1.0560   -5.7850   -2.2600 hn        1 MOL      0.294827
    102 H43         1.7760   -2.8460   -2.3070 h1        1 MOL      0.137566
    103 H44         1.3130   -2.3120   -4.4310 hc        1 MOL      0.037804
    104 H45        -0.4070   -3.8680   -5.2110 hc        1 MOL     -0.005148
    105 H46         0.6740   -5.2500   -5.0640 hc        1 MOL     -0.005148
    106 H47         3.4320   -3.2860   -5.3880 hc        1 MOL      0.029130
    107 H48         3.5890   -3.0740   -3.6470 hc        1 MOL      0.029130
    108 H49         3.2020   -4.6840   -4.4990 hc        1 MOL      0.029130
    109 H50         2.0950   -4.0920   -6.9440 hc        1 MOL      0.066528
    110 H51         0.3980   -4.4910   -7.3750 hc        1 MOL      0.066528
    111 H52         0.9420   -2.8310   -7.0430 hc        1 MOL      0.066528
    112 N10        -1.1070   -4.3230   -1.9920 n         1 MOL     -0.542334
    113 C35        -2.2760   -4.1750   -1.1350 c3        1 MOL      0.082661
    114 C36        -3.6210   -4.3230   -1.9380 c         1 MOL      0.577049
    115 O17        -3.6780   -5.0630   -2.8900 o         1 MOL     -0.525752
    116 C37        -2.1300   -5.1570    0.0380 c3        1 MOL      0.509710
    117 C38        -1.9380   -6.5830   -0.4410 c3        1 MOL     -0.553205
    118 O18        -1.1340   -4.8250    1.0210 oh        1 MOL     -0.654023
    119 H53        -0.8360   -5.2450   -2.3150 hn        1 MOL      0.210222
    120 H54        -2.3190   -3.2130   -0.6210 h1        1 MOL      0.071589
    121 H55        -3.0420   -4.9960    0.6030 h1        1 MOL     -0.068222
    122 H56        -1.0390   -5.6560    1.4880 ho        1 MOL      0.405449
    123 H57        -2.8150   -7.1370   -0.1210 hc        1 MOL      0.144717
    124 H58        -1.8340   -6.7350   -1.5120 hc        1 MOL      0.144717
    125 H59        -1.0080   -6.9870   -0.0170 hc        1 MOL      0.144717
    126 N11        -4.7050   -3.7100   -1.5260 n         1 MOL     -0.553329
    127 C39        -5.9690   -3.6000   -2.2200 c3        1 MOL      0.088536
    128 C40        -6.5310   -2.1460   -2.4810 c         1 MOL      0.639490
    129 O19        -6.7740   -1.8860   -3.6580 o         1 MOL     -0.555428
    130 C41        -7.1180   -4.2870   -1.4540 c3        1 MOL      0.193231
    131 C42        -8.4440   -4.4420   -2.1880 c3        1 MOL     -0.412913
    132 O20        -7.3320   -3.7800   -0.2080 oh        1 MOL     -0.623642
    133 H60        -4.6410   -3.1190   -0.7120 hn        1 MOL      0.288557
    134 H61        -5.7550   -4.0850   -3.1650 h1        1 MOL      0.111615
    135 H62        -6.8940   -5.3330   -1.2570 h1        1 MOL      0.051508
    136 H63        -8.0690   -4.2840    0.1570 ho        1 MOL      0.422705
    137 H64        -8.9110   -3.4720   -2.3590 hc        1 MOL      0.114145
    138 H65        -8.3450   -4.9940   -3.1280 hc        1 MOL      0.114145
    139 H66        -9.1520   -4.9240   -1.5150 hc        1 MOL      0.114145
    140 N12        -6.7640   -1.2250   -1.5160 n         1 MOL     -0.602359
    141 C43        -7.1330    0.1670   -1.6350 c3        1 MOL      0.308583
    142 C44        -6.1980    0.8830   -0.5950 c         1 MOL      0.455745
    143 O21        -5.7630    0.3880    0.4090 o         1 MOL     -0.550429
    144 C45        -8.5890    0.3590   -1.3460 c3        1 MOL     -0.358509
    145 C46        -9.0760    1.8490   -1.3750 c3        1 MOL      0.294631
    146 C47       -10.5780    1.8720   -1.1560 c3        1 MOL     -0.095392
    147 C48       -11.1150    3.3190   -1.0560 c3        1 MOL     -0.091643
    148 N13       -11.0540    4.0950   -2.3150 n4        1 MOL     -0.183731
    149 H67        -6.4930   -1.4370   -0.5690 hn        1 MOL      0.309948
    150 H68        -6.9110    0.5820   -2.6190 h1        1 MOL      0.032482
    151 H69        -8.7680    0.0690   -0.3170 hc        1 MOL      0.106723
    152 H70        -9.1500   -0.2170   -2.0850 hc        1 MOL      0.106723
    153 H71        -8.8020    2.2710   -2.3430 hc        1 MOL     -0.054524
    154 H72        -8.5410    2.4020   -0.5920 hc        1 MOL     -0.054524
    155 H73       -10.9280    1.3070   -0.2890 hc        1 MOL      0.045655
    156 H74       -10.9630    1.3750   -2.0460 hc        1 MOL      0.045655
    157 H75       -10.6070    3.8740   -0.2610 hx        1 MOL      0.112084
    158 H76       -12.1390    3.3410   -0.7010 hx        1 MOL      0.112084
    159 H77       -11.7430    3.7040   -2.9420 hn        1 MOL      0.226856
    160 H78       -11.4170    5.0330   -2.2090 hn        1 MOL      0.226856
    161 H79       -10.1330    4.1100   -2.7470 hn        1 MOL      0.226856
    162 N14        -5.9210    2.1490   -0.9400 n         1 MOL     -0.516951
    163 C49        -4.9810    2.9610   -0.0810 c3        1 MOL      0.441278
    164 C50        -3.5990    2.2860    0.0450 c         1 MOL      0.354739
    165 O22        -3.1030    2.0410    1.0800 o         1 MOL     -0.491501
    166 C51        -4.8320    4.3760   -0.6030 c3        1 MOL      0.029481
    167 C52        -6.1290    5.2380   -0.3200 c3        1 MOL     -0.367379
    168 C53        -5.8680    6.6620   -0.8710 c         1 MOL      0.713599
    169 O23        -4.9040    6.8170   -1.6720 o         1 MOL     -0.679604
    170 O24        -6.5160    7.6820   -0.5200 o         1 MOL     -0.679604
    171 H80        -6.2620    2.4900   -1.8250 hn        1 MOL      0.277713
    172 H81        -5.3240    3.0660    0.9410 h1        1 MOL     -0.083309
    173 H82        -4.6750    4.3420   -1.6890 hc        1 MOL      0.052154
    174 H83        -3.9970    4.8190   -0.0520 hc        1 MOL      0.052154
    175 H84        -6.1930    5.2920    0.7680 hc        1 MOL      0.037401
    176 H85        -7.0420    4.7410   -0.6570 hc        1 MOL      0.037401
    177 N15        -2.9600    1.8670   -1.0490 n         1 MOL     -0.448849
    178 C54        -3.0120    2.4360   -2.4910 c3        1 MOL      0.032337
    179 H86        -1.9970    2.5850   -2.8590 h1        1 MOL      0.042177
    180 H87        -3.5340    1.7340   -3.1410 h1        1 MOL      0.042177
    181 H88        -3.5400    3.3890   -2.4880 h1        1 MOL      0.042177
    182 H89        -2.0900    1.4140   -0.8470 hn        1 MOL      0.325854
    183 Ca1        -2.8180    2.0860    3.8250 Ca        1 MOL      1.734792
    184 O25        -5.0610    1.0670    3.0010 oh        1 MOL     -0.849147
    185 H90        -4.9120    0.8910    2.0700 ho        1 MOL      0.422424
    186 H91        -5.9920    1.2910    3.0570 ho        1 MOL      0.422424
    187 O26        -4.9570    3.0820    5.2750 oh        1 MOL     -0.849147
    188 H92        -5.5800    2.3480    5.3620 ho        1 MOL      0.422424
    189 H93        -4.9820    3.5220    6.1200 ho        1 MOL      0.422424
    190 O27        -1.8510   -0.0730    2.6350 oh        1 MOL     -0.849147
    191 H94        -1.3440   -0.2100    1.8350 ho        1 MOL      0.422424
    192 H95        -1.8950   -0.9390    3.0550 ho        1 MOL      0.422424
    193 O28        -2.1180    3.7520    5.9790 oh        1 MOL     -0.849147
    194 H96        -1.2620    3.6490    6.4090 ho        1 MOL      0.422424
    195 H97        -2.5150    4.5030    6.4080 ho        1 MOL      0.422424
    196 O29        -3.7080    0.0880    5.4150 oh        1 MOL     -0.849147
    197 H98        -4.5500   -0.2050    5.0820 ho        1 MOL      0.422424
    198 H99        -3.6900   -0.1980    6.3280 ho        1 MOL      0.422424
    199 O30        -0.8770    0.7960    5.3600 oh        1 MOL     -0.849147
    200 H100       -1.3820    0.6200    6.1500 ho        1 MOL      0.422424
    201 H101        0.0340    0.6160    5.6030 ho        1 MOL      0.422424
    202 O31        -3.5800    4.2970    2.5370 oh        1 MOL     -0.849147
    203 H102       -2.8420    4.5630    1.9940 ho        1 MOL      0.422424
    204 H103       -4.1610    5.0550    2.5560 ho        1 MOL      0.422424
@<TRIPOS>BOND
     1    1    2 1   
     2    1    4 1   
     3    1    5 1   
     4    1    6 1   
     5    2    3 2   
     6    2    7 1   
     7    7    8 1   
     8    7   15 1   
     9    8    9 1   
    10    8   11 1   
    11    8   16 1   
    12    9   10 2   
    13    9   19 1   
    14   11   12 1   
    15   11   17 1   
    16   11   18 1   
    17   12   13 1   
    18   12   14 1   
    19   19   20 1   
    20   19   28 1   
    21   20   21 1   
    22   20   23 1   
    23   20   29 1   
    24   21   22 2   
    25   21   41 1   
    26   23   24 1   
    27   23   30 1   
    28   23   31 1   
    29   24   25 1   
    30   24   32 1   
    31   24   33 1   
    32   25   26 1   
    33   25   34 1   
    34   25   35 1   
    35   26   27 1   
    36   26   36 1   
    37   26   37 1   
    38   27   38 1   
    39   27   39 1   
    40   27   40 1   
    41   41   42 1   
    42   41   49 1   
    43   42   43 1   
    44   42   45 1   
    45   42   50 1   
    46   43   44 2   
    47   43   53 1   
    48   45   46 1   
    49   45   51 1   
    50   45   52 1   
    51   46   47 1   
    52   46   48 1   
    53   53   54 1   
    54   53   57 1   
    55   54   55 1   
    56   54   58 1   
    57   54   59 1   
    58   55   56 2   
    59   55   60 1   
    60   60   61 1   
    61   60   68 1   
    62   61   62 1   
    63   61   64 1   
    64   61   69 1   
    65   62   63 2   
    66   62   72 1   
    67   64   65 1   
    68   64   70 1   
    69   64   71 1   
    70   65   66 1   
    71   65   67 1   
    72   72   73 1   
    73   72   76 1   
    74   73   74 1   
    75   73   77 1   
    76   73   78 1   
    77   74   75 2   
    78   74   79 1   
    79   79   80 1   
    80   79   86 1   
    81   80   81 1   
    82   80   83 1   
    83   80   87 1   
    84   81   82 2   
    85   81   93 1   
    86   83   84 1   
    87   83   85 1   
    88   83   88 1   
    89   84   90 1   
    90   84   91 1   
    91   84   92 1   
    92   85   89 1   
    93   93   94 1   
    94   93  101 1   
    95   94   95 1   
    96   94   97 1   
    97   94  102 1   
    98   95   96 2   
    99   95  112 1   
   100   97   98 1   
   101   97   99 1   
   102   97  103 1   
   103   98  100 1   
   104   98  104 1   
   105   98  105 1   
   106   99  106 1   
   107   99  107 1   
   108   99  108 1   
   109  100  109 1   
   110  100  110 1   
   111  100  111 1   
   112  112  113 1   
   113  112  119 1   
   114  113  114 1   
   115  113  116 1   
   116  113  120 1   
   117  114  115 2   
   118  114  126 1   
   119  116  117 1   
   120  116  118 1   
   121  116  121 1   
   122  117  123 1   
   123  117  124 1   
   124  117  125 1   
   125  118  122 1   
   126  126  127 1   
   127  126  133 1   
   128  127  128 1   
   129  127  130 1   
   130  127  134 1   
   131  128  129 2   
   132  128  140 1   
   133  130  131 1   
   134  130  132 1   
   135  130  135 1   
   136  131  137 1   
   137  131  138 1   
   138  131  139 1   
   139  132  136 1   
   140  140  141 1   
   141  140  149 1   
   142  141  142 1   
   143  141  144 1   
   144  141  150 1   
   145  142  143 2   
   146  142  162 1   
   147  144  145 1   
   148  144  151 1   
   149  144  152 1   
   150  145  146 1   
   151  145  153 1   
   152  145  154 1   
   153  146  147 1   
   154  146  155 1   
   155  146  156 1   
   156  147  148 1   
   157  147  157 1   
   158  147  158 1   
   159  148  159 1   
   160  148  160 1   
   161  148  161 1   
   162  162  163 1   
   163  162  171 1   
   164  163  164 1   
   165  163  166 1   
   166  163  172 1   
   167  164  165 2   
   168  164  177 1   
   169  166  167 1   
   170  166  173 1   
   171  166  174 1   
   172  167  168 1   
   173  167  175 1   
   174  167  176 1   
   175  168  169 1   
   176  168  170 1   
   177  177  178 1   
   178  177  182 1   
   179  178  179 1   
   180  178  180 1   
   181  178  181 1   
   182  184  185 1   
   183  184  186 1   
   184  187  188 1   
   185  187  189 1   
   186  190  191 1   
   187  190  192 1   
   188  193  194 1   
   189  193  195 1   
   190  196  197 1   
   191  196  198 1   
   192  199  200 1   
   193  199  201 1   
   194  202  203 1   
   195  202  204 1   
@<TRIPOS>SUBSTRUCTURE
     1 MOL         1 TEMP              0 ****  ****    0 ROOT
