@<TRIPOS>MOLECULE
MOL
  192   187     1     0     0
SMALL
resp


@<TRIPOS>ATOM
      1 C1          0.8710    7.7580   -2.5390 c3        1 MOL     -0.187092
      2 C2          1.0380    6.2030   -2.3240 c         1 MOL      0.603658
      3 O1          0.6680    5.3870   -3.2350 o         1 MOL     -0.568985
      4 H1          0.2680    7.9380   -3.4280 hc        1 MOL      0.044480
      5 H2          0.3770    8.1940   -1.6700 hc        1 MOL      0.044480
      6 H3          1.8530    8.2150   -2.6680 hc        1 MOL      0.044480
      7 N1          1.4750    5.8180   -1.1240 n         1 MOL     -0.517471
      8 C3          1.7420    4.3970   -0.7240 c3        1 MOL      0.158982
      9 C4          0.6030    3.7750    0.1050 c         1 MOL      0.444514
     10 O2          0.7450    2.5850    0.4400 o         1 MOL     -0.455339
     11 C5          3.1040    4.2990   -0.0510 c3        1 MOL     -0.406884
     12 C6          3.3410    5.1580    1.1580 c         1 MOL      0.826420
     13 O3          4.3680    4.9070    1.8070 o         1 MOL     -0.769110
     14 O4          2.6760    6.1280    1.3920 o         1 MOL     -0.769110
     15 H4          1.7700    6.5100   -0.4490 hn        1 MOL      0.324362
     16 H5          1.9070    3.7470   -1.5810 h1        1 MOL      0.049177
     17 H6          3.9020    4.5120   -0.7740 hc        1 MOL      0.120782
     18 H7          3.1250    3.2490    0.2460 hc        1 MOL      0.120782
     19 N2         -0.4960    4.4990    0.3800 n         1 MOL     -0.548092
     20 C7         -1.7920    3.7900    0.6210 c3        1 MOL      0.418473
     21 C8         -2.5290    3.3140   -0.5930 c         1 MOL      0.387410
     22 O5         -2.5000    3.9070   -1.6600 o         1 MOL     -0.519122
     23 C9         -2.7670    4.7780    1.3220 c3        1 MOL     -0.401437
     24 C10        -2.4370    4.7540    2.8470 c3        1 MOL      0.205283
     25 C11        -2.5240    6.1590    3.4650 c3        1 MOL     -0.077159
     26 C12        -2.2450    6.2230    4.9580 c3        1 MOL     -0.049258
     27 N3         -0.8460    5.8170    5.3010 n4        1 MOL     -0.359303
     28 H8         -0.5310    5.4820    0.1630 hn        1 MOL      0.292357
     29 H9         -1.5570    2.9130    1.2300 h1        1 MOL     -0.026547
     30 H10        -3.7790    4.4130    1.1310 hc        1 MOL      0.120393
     31 H11        -2.6210    5.7530    0.8530 hc        1 MOL      0.120393
     32 H12        -1.3920    4.4780    3.0130 hc        1 MOL     -0.005800
     33 H13        -3.1840    4.1190    3.3270 hc        1 MOL     -0.005800
     34 H14        -3.5260    6.5650    3.4010 hc        1 MOL      0.052158
     35 H15        -1.8760    6.8570    2.9290 hc        1 MOL      0.052158
     36 H16        -2.9090    5.6350    5.5920 hx        1 MOL      0.113756
     37 H17        -2.3710    7.2750    5.2120 hx        1 MOL      0.113756
     38 H18        -0.6500    4.8460    5.1260 hn        1 MOL      0.328252
     39 H19        -0.2020    6.2320    4.6430 hn        1 MOL      0.328252
     40 H20        -0.5550    6.1670    6.2040 hn        1 MOL      0.328252
     41 N4         -3.1150    2.1010   -0.5580 n         1 MOL     -0.387559
     42 C13        -3.2180    1.0340    0.4930 c3        1 MOL     -0.119655
     43 C14        -3.8140    1.5370    1.8660 c         1 MOL      0.498279
     44 O6         -3.1000    1.7140    2.8670 o         1 MOL     -0.622875
     45 C15        -1.9780    0.1400    0.4800 c3        1 MOL      0.479941
     46 C16        -1.5500   -0.3810   -0.9210 c         1 MOL      0.484788
     47 O7         -0.4500   -1.0330   -0.9860 o         1 MOL     -0.708217
     48 O8         -2.3370   -0.4730   -1.8430 o         1 MOL     -0.708217
     49 H21        -3.5370    1.8800   -1.4400 hn        1 MOL      0.263156
     50 H22        -4.0460    0.4030    0.1770 h1        1 MOL      0.032223
     51 H23        -2.1090   -0.5910    1.2780 hc        1 MOL     -0.108232
     52 H24        -1.1140    0.7230    0.8010 hc        1 MOL     -0.108232
     53 N5         -5.0680    1.9470    1.9620 n         1 MOL     -0.303213
     54 C17        -5.9550    1.8430    0.8510 c3        1 MOL     -0.029735
     55 C18        -7.4190    2.1310    1.1070 c         1 MOL      0.615895
     56 O9         -7.7610    2.7650    2.1010 o         1 MOL     -0.581011
     57 H25        -5.3690    2.3310    2.8510 hn        1 MOL      0.276954
     58 H26        -5.9480    0.8750    0.3480 h1        1 MOL      0.058606
     59 H27        -5.6720    2.5580    0.0830 h1        1 MOL      0.058606
     60 N6         -8.3410    1.6920    0.2530 n         1 MOL     -0.497033
     61 C19        -8.0760    1.1250   -1.0680 c3        1 MOL      0.062975
     62 C20        -7.9840   -0.4610   -0.9970 c         1 MOL      0.475292
     63 O10        -8.7120   -1.1490   -0.2040 o         1 MOL     -0.472252
     64 C21        -9.1630    1.5570   -2.0830 c3        1 MOL     -0.190161
     65 C22       -10.6190    1.1610   -1.8150 c         1 MOL      0.707369
     66 O11       -11.3580    2.0400   -1.2660 o         1 MOL     -0.694123
     67 O12       -11.0500    0.0310   -2.1900 o         1 MOL     -0.694123
     68 H28        -9.3160    1.7170    0.4850 hn        1 MOL      0.331793
     69 H29        -7.1290    1.4060   -1.5120 h1        1 MOL      0.041124
     70 H30        -8.7490    1.0590   -2.9640 hc        1 MOL      0.014506
     71 H31        -8.9740    2.6180   -2.2470 hc        1 MOL      0.014506
     72 N7         -7.0770   -1.0420   -1.7320 n         1 MOL     -0.422168
     73 C23        -6.4940   -2.3680   -1.5420 c3        1 MOL     -0.063000
     74 C24        -5.7020   -2.3960   -0.2270 c         1 MOL      0.586510
     75 O13        -5.6490   -1.4870    0.5860 o         1 MOL     -0.477073
     76 H32        -6.4620   -0.3500   -2.1310 hn        1 MOL      0.274075
     77 H33        -5.9250   -2.6710   -2.4270 h1        1 MOL      0.084374
     78 H34        -7.3000   -3.0950   -1.4910 h1        1 MOL      0.084374
     79 N8         -5.0420   -3.5660   -0.0280 n         1 MOL     -0.656186
     80 C25        -4.3010   -3.9020    1.1410 c3        1 MOL      0.573739
     81 C26        -2.8200   -3.5860    1.0530 c         1 MOL      0.229297
     82 O14        -2.2850   -3.6150   -0.0700 o         1 MOL     -0.534298
     83 C27        -4.4500   -5.4300    1.4550 c3        1 MOL      0.322217
     84 C28        -3.6230   -6.3340    0.5400 c3        1 MOL     -0.101322
     85 O15        -5.8280   -5.8700    1.3700 oh        1 MOL     -0.656440
     86 H35        -5.0750   -4.2440   -0.7680 hn        1 MOL      0.252912
     87 H36        -4.7150   -3.4850    2.0590 h1        1 MOL     -0.023340
     88 H37        -3.9730   -5.6520    2.4100 h1        1 MOL     -0.013438
     89 H38        -5.8580   -6.6830    0.8630 ho        1 MOL      0.416473
     90 H39        -2.5540   -6.1170    0.5880 hc        1 MOL      0.014721
     91 H40        -3.8390   -7.3690    0.8130 hc        1 MOL      0.014721
     92 H41        -3.8830   -6.1360   -0.4890 hc        1 MOL      0.014721
     93 N9         -2.1480   -3.3520    2.1670 n         1 MOL     -0.393332
     94 C29        -0.6760   -3.0950    2.2190 c3        1 MOL      0.054327
     95 C30         0.0520   -4.3110    1.6090 c         1 MOL      0.392499
     96 O16        -0.1620   -5.4650    2.0210 o         1 MOL     -0.535231
     97 C31        -0.2630   -2.8400    3.6560 c3        1 MOL      0.064496
     98 C32        -0.8580   -1.4440    3.9190 c3        1 MOL     -0.083794
     99 C33         1.1930   -2.9480    3.9740 c3        1 MOL      0.064448
    100 C34        -0.4440   -0.8640    5.2610 c3        1 MOL     -0.362002
    101 H42        -2.6010   -3.4500    3.0660 hn        1 MOL      0.236932
    102 H43        -0.5080   -2.3100    1.4860 h1        1 MOL     -0.078861
    103 H44        -0.6450   -3.6750    4.2370 hc        1 MOL      0.062991
    104 H45        -1.9480   -1.4820    3.9500 hc        1 MOL      0.115383
    105 H46        -0.6350   -0.6490    3.2080 hc        1 MOL      0.115383
    106 H47         1.7570   -2.1270    3.5250 hc        1 MOL     -0.014226
    107 H48         1.2940   -2.8230    5.0530 hc        1 MOL     -0.014226
    108 H49         1.5580   -3.9590    3.7770 hc        1 MOL     -0.014226
    109 H50         0.4210   -0.2000    5.2210 hc        1 MOL      0.086374
    110 H51        -1.2480   -0.2180    5.6250 hc        1 MOL      0.086374
    111 H52        -0.3420   -1.6370    6.0330 hc        1 MOL      0.086374
    112 N10         0.9110   -4.0370    0.6020 n         1 MOL     -0.057940
    113 C35         1.8970   -5.0730    0.0840 c3        1 MOL     -0.234096
    114 C36         3.3490   -4.6640    0.3400 c         1 MOL      0.362718
    115 O17         4.2530   -5.4200    0.0580 o         1 MOL     -0.488678
    116 C37         1.7270   -5.3720   -1.3820 c3        1 MOL      0.634243
    117 C38         1.9340   -4.0910   -2.1940 c3        1 MOL     -0.268238
    118 O18         0.4480   -5.8540   -1.6360 oh        1 MOL     -0.740080
    119 H53         0.9700   -3.0880    0.2790 hn        1 MOL      0.322044
    120 H54         1.8370   -6.0050    0.6370 h1        1 MOL      0.148063
    121 H55         2.4360   -6.1400   -1.6820 h1        1 MOL     -0.017760
    122 H56        -0.1030   -5.1220   -1.9310 ho        1 MOL      0.425394
    123 H57         1.6800   -4.3060   -3.2320 hc        1 MOL      0.022773
    124 H58         1.4270   -3.1980   -1.8360 hc        1 MOL      0.022773
    125 H59         3.0030   -3.8640   -2.1780 hc        1 MOL      0.022773
    126 N11         3.6250   -3.4630    0.9210 n         1 MOL     -0.307287
    127 C39         4.9950   -2.9160    1.2620 c3        1 MOL      0.132445
    128 C40         5.9440   -2.6930    0.1220 c         1 MOL      0.351000
    129 O19         5.8220   -3.2970   -0.9480 o         1 MOL     -0.427954
    130 C41         5.5520   -3.6550    2.5170 c3        1 MOL      0.472408
    131 C42         4.6000   -3.8240    3.6780 c3        1 MOL     -0.334734
    132 O20         6.5890   -2.8330    3.0690 oh        1 MOL     -0.737306
    133 H60         2.8610   -2.8470    1.1560 hn        1 MOL      0.142916
    134 H61         4.7750   -1.9350    1.6930 h1        1 MOL      0.067165
    135 H62         6.0470   -4.5850    2.2520 h1        1 MOL     -0.002342
    136 H63         7.1150   -3.4030    3.6310 ho        1 MOL      0.410807
    137 H64         5.1530   -4.0770    4.5880 hc        1 MOL      0.077401
    138 H65         4.0620   -2.9030    3.8930 hc        1 MOL      0.077401
    139 H66         3.9820   -4.6670    3.3820 hc        1 MOL      0.077401
    140 N12         6.8400   -1.7520    0.3550 n         1 MOL     -0.285438
    141 C43         7.8360   -1.2690   -0.6800 c3        1 MOL      0.030873
    142 C44         7.1870   -0.3940   -1.7680 c         1 MOL      0.417565
    143 O21         7.7160   -0.4750   -2.9080 o         1 MOL     -0.534005
    144 C45         9.1920   -0.7820   -0.0510 c3        1 MOL     -0.060607
    145 C46         9.1170    0.4880    0.9030 c3        1 MOL     -0.055438
    146 C47         8.4640    0.1060    2.2770 c3        1 MOL      0.003933
    147 C48         8.7270    1.1390    3.3620 c3        1 MOL     -0.103544
    148 N13         7.4910    1.9700    3.6550 n4        1 MOL     -0.251136
    149 H67         6.8550   -1.3950    1.3050 hn        1 MOL      0.106918
    150 H68         8.1690   -2.1140   -1.2770 h1        1 MOL      0.110590
    151 H69         9.8770   -0.5660   -0.8650 hc        1 MOL      0.048448
    152 H70         9.5500   -1.6430    0.5280 hc        1 MOL      0.048448
    153 H71         8.5150    1.2470    0.3890 hc        1 MOL      0.039161
    154 H72        10.1400    0.7840    1.1250 hc        1 MOL      0.039161
    155 H73         8.8840   -0.8230    2.6360 hc        1 MOL      0.057921
    156 H74         7.3910   -0.0200    2.1470 hc        1 MOL      0.057921
    157 H75         9.4440    1.8260    2.9210 hx        1 MOL      0.121800
    158 H76         9.0660    0.6330    4.2670 hx        1 MOL      0.121800
    159 H77         7.6250    2.6800    4.3580 hn        1 MOL      0.302814
    160 H78         7.2060    2.4720    2.8280 hn        1 MOL      0.302814
    161 H79         6.6740    1.4130    3.8440 hn        1 MOL      0.302814
    162 N14         6.0760    0.2770   -1.4690 n         1 MOL     -0.037483
    163 C49         5.3110    1.1820   -2.3960 c3        1 MOL     -0.645735
    164 C50         6.0730    2.5590   -2.4800 c         1 MOL      0.555464
    165 O22         6.0800    3.2130   -1.4730 o         1 MOL     -0.533427
    166 C51         3.8340    1.3420   -1.9790 c3        1 MOL      0.403486
    167 C52         3.0290    0.1090   -1.9880 c3        1 MOL     -0.011130
    168 C53         2.8180   -0.4840   -3.3910 c         1 MOL      0.781381
    169 O23         1.9910   -1.3750   -3.6100 o         1 MOL     -0.751625
    170 O24         3.4840   -0.0960   -4.3860 o         1 MOL     -0.751625
    171 H80         5.7250    0.1630   -0.5280 hn        1 MOL      0.171645
    172 H81         5.3400    0.8020   -3.4160 h1        1 MOL      0.315805
    173 H82         3.2810    1.9680   -2.6870 hc        1 MOL     -0.063868
    174 H83         3.8400    1.7920   -0.9860 hc        1 MOL     -0.063868
    175 H84         2.0920    0.3040   -1.4700 hc        1 MOL     -0.082734
    176 H85         3.5890   -0.5930   -1.3610 hc        1 MOL     -0.082734
    177 N15         6.6370    2.7990   -3.6590 n         1 MOL     -0.260324
    178 C54         7.6010    3.8670   -3.9650 c3        1 MOL     -0.153086
    179 H86         7.0840    4.6920   -4.4570 h1        1 MOL      0.090596
    180 H87         8.0560    4.2230   -3.0410 h1        1 MOL      0.090596
    181 H88         8.3760    3.4790   -4.6260 h1        1 MOL      0.090596
    182 H89         6.4380    2.0600   -4.3170 hn        1 MOL      0.248072
    183 Ca1        -0.7540   -1.6460   -3.6330 Ca        1 MOL      1.809063
    184 O25        -1.4980   -3.9360   -2.4610 oh        1 MOL     -0.911264
    185 H90        -2.0730   -3.7450   -1.7260 ho        1 MOL      0.446696
    186 H91        -1.9970   -4.5470   -3.0020 ho        1 MOL      0.446696
    187 O26        -3.1410   -2.4280   -4.3730 oh        1 MOL     -0.911264
    188 H92        -3.4660   -3.2800   -4.0760 ho        1 MOL      0.446696
    189 H93        -3.9340   -1.9340   -4.5860 ho        1 MOL      0.446696
    190 O27         0.1300    0.9300   -3.5170 oh        1 MOL     -0.911264
    191 H94         0.8660    1.3540   -3.0600 ho        1 MOL      0.446696
    192 H95        -0.5680    1.5880   -3.4900 ho        1 MOL      0.446696
@<TRIPOS>BOND
     1    1    2 1   
     2    1    4 1   
     3    1    5 1   
     4    1    6 1   
     5    2    3 2   
     6    2    7 1   
     7    7    8 1   
     8    7   15 1   
     9    8    9 1   
    10    8   11 1   
    11    8   16 1   
    12    9   10 2   
    13    9   19 1   
    14   11   12 1   
    15   11   17 1   
    16   11   18 1   
    17   12   13 1   
    18   12   14 1   
    19   19   20 1   
    20   19   28 1   
    21   20   21 1   
    22   20   23 1   
    23   20   29 1   
    24   21   22 2   
    25   21   41 1   
    26   23   24 1   
    27   23   30 1   
    28   23   31 1   
    29   24   25 1   
    30   24   32 1   
    31   24   33 1   
    32   25   26 1   
    33   25   34 1   
    34   25   35 1   
    35   26   27 1   
    36   26   36 1   
    37   26   37 1   
    38   27   38 1   
    39   27   39 1   
    40   27   40 1   
    41   41   42 1   
    42   41   49 1   
    43   42   43 1   
    44   42   45 1   
    45   42   50 1   
    46   43   44 2   
    47   43   53 1   
    48   45   46 1   
    49   45   51 1   
    50   45   52 1   
    51   46   47 1   
    52   46   48 1   
    53   53   54 1   
    54   53   57 1   
    55   54   55 1   
    56   54   58 1   
    57   54   59 1   
    58   55   56 2   
    59   55   60 1   
    60   60   61 1   
    61   60   68 1   
    62   61   62 1   
    63   61   64 1   
    64   61   69 1   
    65   62   63 2   
    66   62   72 1   
    67   64   65 1   
    68   64   70 1   
    69   64   71 1   
    70   65   66 1   
    71   65   67 1   
    72   72   73 1   
    73   72   76 1   
    74   73   74 1   
    75   73   77 1   
    76   73   78 1   
    77   74   75 2   
    78   74   79 1   
    79   79   80 1   
    80   79   86 1   
    81   80   81 1   
    82   80   83 1   
    83   80   87 1   
    84   81   82 2   
    85   81   93 1   
    86   83   84 1   
    87   83   85 1   
    88   83   88 1   
    89   84   90 1   
    90   84   91 1   
    91   84   92 1   
    92   85   89 1   
    93   93   94 1   
    94   93  101 1   
    95   94   95 1   
    96   94   97 1   
    97   94  102 1   
    98   95   96 2   
    99   95  112 1   
   100   97   98 1   
   101   97   99 1   
   102   97  103 1   
   103   98  100 1   
   104   98  104 1   
   105   98  105 1   
   106   99  106 1   
   107   99  107 1   
   108   99  108 1   
   109  100  109 1   
   110  100  110 1   
   111  100  111 1   
   112  112  113 1   
   113  112  119 1   
   114  113  114 1   
   115  113  116 1   
   116  113  120 1   
   117  114  115 2   
   118  114  126 1   
   119  116  117 1   
   120  116  118 1   
   121  116  121 1   
   122  117  123 1   
   123  117  124 1   
   124  117  125 1   
   125  118  122 1   
   126  126  127 1   
   127  126  133 1   
   128  127  128 1   
   129  127  130 1   
   130  127  134 1   
   131  128  129 2   
   132  128  140 1   
   133  130  131 1   
   134  130  132 1   
   135  130  135 1   
   136  131  137 1   
   137  131  138 1   
   138  131  139 1   
   139  132  136 1   
   140  140  141 1   
   141  140  149 1   
   142  141  142 1   
   143  141  144 1   
   144  141  150 1   
   145  142  143 2   
   146  142  162 1   
   147  144  145 1   
   148  144  151 1   
   149  144  152 1   
   150  145  146 1   
   151  145  153 1   
   152  145  154 1   
   153  146  147 1   
   154  146  155 1   
   155  146  156 1   
   156  147  148 1   
   157  147  157 1   
   158  147  158 1   
   159  148  159 1   
   160  148  160 1   
   161  148  161 1   
   162  162  163 1   
   163  162  171 1   
   164  163  164 1   
   165  163  166 1   
   166  163  172 1   
   167  164  165 2   
   168  164  177 1   
   169  166  167 1   
   170  166  173 1   
   171  166  174 1   
   172  167  168 1   
   173  167  175 1   
   174  167  176 1   
   175  168  169 1   
   176  168  170 1   
   177  177  178 1   
   178  177  182 1   
   179  178  179 1   
   180  178  180 1   
   181  178  181 1   
   182  184  185 1   
   183  184  186 1   
   184  187  188 1   
   185  187  189 1   
   186  190  191 1   
   187  190  192 1   
@<TRIPOS>SUBSTRUCTURE
     1 MOL         1 TEMP              0 ****  ****    0 ROOT
