@<TRIPOS>MOLECULE
MOL
  185   180     1     0     0
SMALL
resp


@<TRIPOS>ATOM
      1 C1          6.0680    2.5890    2.8370 c3        1 MOL     -0.487725
      2 C2          6.1100    2.1730    1.3560 c         1 MOL      0.654506
      3 O1          5.3010    1.3360    0.9540 o         1 MOL     -0.553630
      4 H1          6.8870    3.2760    3.0440 hc        1 MOL      0.125212
      5 H2          5.1190    3.0820    3.0500 hc        1 MOL      0.125212
      6 H3          6.1680    1.7050    3.4670 hc        1 MOL      0.125212
      7 N1          7.0980    2.6790    0.6230 n         1 MOL     -0.499633
      8 C3          7.2250    2.6060   -0.8800 c3        1 MOL      0.025157
      9 C4          7.3580    1.1480   -1.4290 c         1 MOL      0.471207
     10 O2          7.2360    0.9190   -2.6260 o         1 MOL     -0.489992
     11 C5          6.1460    3.4960   -1.5880 c3        1 MOL     -0.127814
     12 C6          6.7490    4.5580   -2.4130 c         1 MOL      0.674610
     13 O3          7.9140    4.3680   -2.9020 o         1 MOL     -0.643639
     14 O4          6.2030    5.6720   -2.5440 o         1 MOL     -0.643639
     15 H4          7.7080    3.3050    1.1210 hn        1 MOL      0.316233
     16 H5          8.1990    3.0610   -1.0460 h1        1 MOL      0.073691
     17 H6          5.4390    4.0270   -0.9450 hc        1 MOL      0.057761
     18 H7          5.5040    2.8420   -2.1850 hc        1 MOL      0.057761
     19 N2          7.5270    0.1790   -0.5240 n         1 MOL     -0.334226
     20 C7          7.7330   -1.2400   -0.8230 c3        1 MOL      0.202863
     21 C8          6.6920   -2.1410   -0.0790 c         1 MOL      0.432431
     22 O5          6.8950   -3.3500   -0.0800 o         1 MOL     -0.523326
     23 C9          9.1480   -1.6690   -0.4590 c3        1 MOL     -0.080640
     24 C10         9.4960   -1.3880    1.0460 c3        1 MOL      0.102366
     25 C11        10.7880   -1.9980    1.3880 c3        1 MOL      0.031529
     26 C12        11.2310   -1.4270    2.7630 c3        1 MOL     -0.075004
     27 N3         12.5730   -1.9250    3.0250 n4        1 MOL      0.019822
     28 H8          7.4870    0.3760    0.4630 hn        1 MOL      0.140304
     29 H9          7.5140   -1.3530   -1.8770 h1        1 MOL      0.068013
     30 H10         9.7270   -0.9630   -1.0600 hc        1 MOL      0.013608
     31 H11         9.2800   -2.7070   -0.7430 hc        1 MOL      0.013608
     32 H12         8.7210   -1.7760    1.7020 hc        1 MOL     -0.012386
     33 H13         9.5490   -0.3170    1.2260 hc        1 MOL     -0.012386
     34 H14        11.5060   -1.8550    0.5770 hc        1 MOL      0.021179
     35 H15        10.6320   -3.0630    1.5640 hc        1 MOL      0.021179
     36 H16        10.6410   -1.7350    3.6220 hx        1 MOL      0.077632
     37 H17        11.2340   -0.3440    2.6350 hx        1 MOL      0.077632
     38 H18        12.7730   -2.8030    2.5740 hn        1 MOL      0.168799
     39 H19        13.3520   -1.3400    2.7790 hn        1 MOL      0.168799
     40 H20        12.7490   -2.1290    3.9980 hn        1 MOL      0.168799
     41 N4          5.6530   -1.5610    0.5440 n         1 MOL     -0.375704
     42 C13         4.3150   -2.2110    0.8230 c3        1 MOL     -0.111626
     43 C14         3.8900   -2.9070   -0.5080 c         1 MOL      0.492275
     44 O6          4.1790   -2.3620   -1.5650 o         1 MOL     -0.412981
     45 C15         3.3140   -1.0230    1.1880 c3        1 MOL     -0.075574
     46 C16         1.9160   -1.6100    1.1590 c         1 MOL      0.456508
     47 O7          1.2320   -1.4830    0.1140 o         1 MOL     -0.653437
     48 O8          1.3810   -2.0300    2.2420 o         1 MOL     -0.653437
     49 H21         5.7100   -0.5760    0.2910 hn        1 MOL      0.242007
     50 H22         4.3840   -2.9120    1.6540 h1        1 MOL      0.101275
     51 H23         3.3910   -0.1800    0.5100 hc        1 MOL      0.075311
     52 H24         3.5380   -0.5070    2.1190 hc        1 MOL      0.075311
     53 N5          3.1980   -4.0120   -0.4070 n         1 MOL     -0.335843
     54 C17         2.9550   -4.8670   -1.5930 c3        1 MOL     -0.319503
     55 C18         2.1420   -4.2000   -2.7930 c         1 MOL      0.507763
     56 O9          2.5350   -4.4820   -3.9190 o         1 MOL     -0.524486
     57 H25         2.8760   -4.3640    0.4880 hn        1 MOL      0.316686
     58 H26         2.3560   -5.7160   -1.2650 h1        1 MOL      0.155537
     59 H27         3.9630   -5.0840   -1.9660 h1        1 MOL      0.155537
     60 N6          1.2590   -3.2460   -2.5350 n         1 MOL     -0.408450
     61 C19         0.6910   -2.4540   -3.5600 c3        1 MOL      0.154280
     62 C20         1.1170   -0.9580   -3.4540 c         1 MOL      0.420373
     63 O10         0.5520   -0.0690   -4.0750 o         1 MOL     -0.568484
     64 C21        -0.8130   -2.8260   -3.6950 c3        1 MOL     -0.370842
     65 C22        -1.6730   -2.0220   -2.7600 c         1 MOL      0.786497
     66 N7         -2.6450   -1.2810   -3.1590 n         1 MOL     -0.689969
     67 O11        -1.4820   -2.0610   -1.5890 o         1 MOL     -0.754565
     68 H28         1.0950   -2.9460   -1.5820 hn        1 MOL      0.460718
     69 H29         1.1520   -2.7100   -4.5170 h1        1 MOL      0.087018
     70 H30        -0.8890   -3.8820   -3.4540 hc        1 MOL      0.107310
     71 H31        -1.1970   -2.6950   -4.7100 hc        1 MOL      0.107310
     72 H32        -2.8720   -1.2120   -4.1510 hn        1 MOL      0.311627
     73 H33        -3.2930   -0.9190   -2.4740 hn        1 MOL      0.311627
     74 N8          2.1810   -0.6590   -2.7190 n         1 MOL     -0.100423
     75 C23         2.7510    0.6660   -2.6340 c3        1 MOL     -0.221478
     76 C24         2.1470    1.7310   -1.6720 c         1 MOL      0.536734
     77 O12         2.5090    2.9120   -1.7950 o         1 MOL     -0.539771
     78 H34         2.6820   -1.4290   -2.3170 hn        1 MOL      0.083511
     79 H35         2.7910    1.0840   -3.6410 h1        1 MOL      0.134432
     80 H36         3.7490    0.4480   -2.2490 h1        1 MOL      0.134432
     81 N9          1.1450    1.4310   -0.8440 n         1 MOL     -0.281498
     82 C25         0.4510    2.3520    0.0400 c3        1 MOL      0.045962
     83 C26        -0.8510    1.7430    0.4960 c         1 MOL      0.208852
     84 O13        -1.0730    0.5020    0.3200 o         1 MOL     -0.405662
     85 C27         1.3190    2.4270    1.3140 c3        1 MOL     -0.181043
     86 C28         0.8510    3.1050    2.5630 ca        1 MOL      0.119428
     87 C29         1.0160    4.4860    2.6860 ca        1 MOL     -0.219645
     88 C30         0.3650    2.3900    3.6170 ca        1 MOL     -0.219645
     89 C31         0.6150    5.1480    3.8550 ca        1 MOL     -0.192653
     90 C32        -0.0090    2.9840    4.8420 ca        1 MOL     -0.192653
     91 C33         0.2340    4.3630    4.9810 ca        1 MOL      0.271468
     92 O14        -0.1280    4.9660    6.1500 oh        1 MOL     -0.484521
     93 H37         0.9180    0.4540   -0.7560 hn        1 MOL      0.221120
     94 H38         0.3150    3.3270   -0.4240 h1        1 MOL      0.090981
     95 H39         2.1650    2.9980    0.9370 hc        1 MOL      0.110321
     96 H40         1.6940    1.4660    1.6570 hc        1 MOL      0.110321
     97 H41         1.5160    5.0450    1.9010 ha        1 MOL      0.155768
     98 H42         0.2490    1.3190    3.4900 ha        1 MOL      0.155768
     99 H43         0.6820    6.2090    4.0170 ha        1 MOL      0.136662
    100 H44        -0.2880    2.4680    5.7530 ha        1 MOL      0.136662
    101 H45        -0.4980    4.3680    6.7970 ho        1 MOL      0.366622
    102 N10        -1.7630    2.6250    0.8850 n         1 MOL     -0.243823
    103 C34        -3.2300    2.2800    0.9290 c3        1 MOL     -0.049670
    104 C35        -3.7200    1.8950   -0.5370 c         1 MOL      0.169114
    105 O15        -4.2210    0.8000   -0.7320 o         1 MOL     -0.218717
    106 C36        -3.9720    3.5190    1.4350 c3        1 MOL      0.037738
    107 C37        -3.4670    4.1040    2.7560 c3        1 MOL      0.074018
    108 C38        -5.4980    3.3000    1.5860 c3        1 MOL     -0.613521
    109 C39        -3.4860    3.0370    3.9210 c3        1 MOL      0.018524
    110 H46        -1.5240    3.6160    0.8920 hn        1 MOL      0.242470
    111 H47        -3.4320    1.5280    1.6820 h1        1 MOL      0.128754
    112 H48        -3.9060    4.3220    0.7080 hc        1 MOL      0.023946
    113 H49        -3.9400    5.0340    3.0980 hc        1 MOL     -0.000316
    114 H50        -2.3980    4.3510    2.7000 hc        1 MOL     -0.000316
    115 H51        -5.8990    4.2650    1.8810 hc        1 MOL      0.176864
    116 H52        -5.8860    3.0490    0.5910 hc        1 MOL      0.176864
    117 H53        -5.6930    2.5480    2.3550 hc        1 MOL      0.176864
    118 H54        -3.0580    3.4360    4.8390 hc        1 MOL     -0.010682
    119 H55        -4.4540    2.6100    4.1660 hc        1 MOL     -0.010682
    120 H56        -2.7410    2.2640    3.7210 hc        1 MOL     -0.010682
    121 N11        -3.3990    2.6760   -1.5730 n         1 MOL     -0.011346
    122 C40        -3.5060    2.2900   -3.0210 c3        1 MOL     -0.181976
    123 C41        -4.8910    1.9210   -3.4870 c         1 MOL      0.618218
    124 O16        -5.1170    0.9260   -4.1210 o         1 MOL     -0.520932
    125 C42        -2.6830    3.2840   -3.8830 c3        1 MOL     -0.049375
    126 O17        -3.0770    4.6320   -3.6720 oh        1 MOL     -0.618739
    127 H57        -3.1600    3.6340   -1.3670 hn        1 MOL      0.208251
    128 H58        -3.0140    1.3240   -3.1100 h1        1 MOL      0.107703
    129 H59        -2.9560    3.1300   -4.9290 h1        1 MOL      0.122959
    130 H60        -1.6260    3.1340   -3.6800 h1        1 MOL      0.122959
    131 H61        -2.7070    5.1610   -4.3780 ho        1 MOL      0.440465
    132 N12        -5.9290    2.6030   -3.0030 n         1 MOL     -0.315834
    133 C43        -7.3680    2.2770   -3.1510 c3        1 MOL      0.154728
    134 C44        -7.7560    0.8770   -2.6730 c         1 MOL      0.562484
    135 O18        -8.7810    0.3540   -3.1760 o         1 MOL     -0.541974
    136 C45        -7.7580    2.4540   -4.6350 c3        1 MOL     -0.340462
    137 H62        -5.6600    3.4840   -2.6040 hn        1 MOL      0.205356
    138 H63        -8.0380    2.9080   -2.5750 h1        1 MOL      0.054672
    139 H64        -7.1010    1.7330   -5.1040 hc        1 MOL      0.096946
    140 H65        -8.8370    2.3940   -4.8080 hc        1 MOL      0.096946
    141 H66        -7.3870    3.4370   -4.9260 hc        1 MOL      0.096946
    142 N13        -7.0690    0.3860   -1.6440 n         1 MOL     -0.507435
    143 C46        -7.2510   -0.9830   -1.1200 c3        1 MOL      0.179270
    144 C47        -6.9490   -1.0890    0.4050 c         1 MOL      0.669165
    145 O19        -6.3670   -0.2670    1.1180 o         1 MOL     -0.514520
    146 C48        -6.3490   -1.8310   -1.9630 c3        1 MOL     -0.286773
    147 H67        -6.2360    0.8780   -1.3570 hn        1 MOL      0.096012
    148 H68        -8.2780   -1.2920   -1.2810 h1        1 MOL      0.055381
    149 H69        -6.3140   -2.8870   -1.6710 hc        1 MOL      0.090913
    150 H70        -6.5610   -1.8330   -3.0400 hc        1 MOL      0.090913
    151 H71        -5.3270   -1.5430   -1.7280 hc        1 MOL      0.090913
    152 N14        -7.3160   -2.3000    0.8480 n         1 MOL     -0.788680
    153 C49        -7.1870   -2.7910    2.2730 c3        1 MOL      0.053781
    154 C50        -7.7750   -1.8390    3.3420 c         1 MOL      0.432776
    155 O20        -7.5840   -1.9300    4.5610 o         1 MOL     -0.501180
    156 C51        -5.7870   -3.2860    2.6040 c3        1 MOL      0.080118
    157 C52        -5.2600   -4.2250    1.5860 c3        1 MOL     -0.186630
    158 C53        -3.7560   -4.3230    1.7060 c         1 MOL      0.719679
    159 O21        -3.0430   -3.8960    0.8020 o         1 MOL     -0.723120
    160 O22        -3.3270   -4.9960    2.6280 o         1 MOL     -0.723120
    161 H72        -7.4130   -2.9960    0.1260 hn        1 MOL      0.392002
    162 H73        -7.8810   -3.6270    2.3640 h1        1 MOL      0.098896
    163 H74        -5.9060   -3.7390    3.5920 hc        1 MOL      0.018226
    164 H75        -5.2010   -2.3760    2.7530 hc        1 MOL      0.018226
    165 H76        -5.4340   -3.8900    0.5650 hc        1 MOL      0.036010
    166 H77        -5.8240   -5.1310    1.8320 hc        1 MOL      0.036010
    167 N15        -8.6970   -0.9640    2.8690 n         1 MOL     -0.274805
    168 C54        -9.3980    0.1340    3.5040 c3        1 MOL     -0.108310
    169 H78       -10.4230   -0.1650    3.7180 h1        1 MOL      0.080034
    170 H79        -8.8940    0.3970    4.4350 h1        1 MOL      0.080034
    171 H80        -9.4030    0.9970    2.8380 h1        1 MOL      0.080034
    172 H81        -8.7490   -0.9610    1.8590 hn        1 MOL      0.220414
    173 Ca1        -1.1010   -2.2810    1.0040 Ca        1 MOL      1.729826
    174 O23        -0.1890   -4.5670   -0.1320 oh        1 MOL     -0.852801
    175 H82         0.0280   -5.4110    0.2490 ho        1 MOL      0.412650
    176 H83        -0.6760   -4.7830   -0.9330 ho        1 MOL      0.412650
    177 O24        -3.5860   -1.1120    1.0320 oh        1 MOL     -0.852801
    178 H84        -4.3970   -0.9930    1.5260 ho        1 MOL      0.412650
    179 H85        -3.6650   -0.5100    0.2880 ho        1 MOL      0.412650
    180 O25        -0.6380   -4.3170    2.6370 oh        1 MOL     -0.852801
    181 H86        -1.4120   -4.8790    2.5560 ho        1 MOL      0.412650
    182 H87        -0.4690   -4.2740    3.5790 ho        1 MOL      0.412650
    183 O26        -1.4450   -1.2950    3.4510 oh        1 MOL     -0.852801
    184 H88        -0.8650   -1.4280    4.2010 ho        1 MOL      0.412650
    185 H89        -2.0220   -0.5720    3.7260 ho        1 MOL      0.412650
@<TRIPOS>BOND
     1    1    2 1   
     2    1    4 1   
     3    1    5 1   
     4    1    6 1   
     5    2    3 2   
     6    2    7 1   
     7    7    8 1   
     8    7   15 1   
     9    8    9 1   
    10    8   11 1   
    11    8   16 1   
    12    9   10 2   
    13    9   19 1   
    14   11   12 1   
    15   11   17 1   
    16   11   18 1   
    17   12   13 1   
    18   12   14 1   
    19   19   20 1   
    20   19   28 1   
    21   20   21 1   
    22   20   23 1   
    23   20   29 1   
    24   21   22 2   
    25   21   41 1   
    26   23   24 1   
    27   23   30 1   
    28   23   31 1   
    29   24   25 1   
    30   24   32 1   
    31   24   33 1   
    32   25   26 1   
    33   25   34 1   
    34   25   35 1   
    35   26   27 1   
    36   26   36 1   
    37   26   37 1   
    38   27   38 1   
    39   27   39 1   
    40   27   40 1   
    41   41   42 1   
    42   41   49 1   
    43   42   43 1   
    44   42   45 1   
    45   42   50 1   
    46   43   44 2   
    47   43   53 1   
    48   45   46 1   
    49   45   51 1   
    50   45   52 1   
    51   46   47 1   
    52   46   48 1   
    53   53   54 1   
    54   53   57 1   
    55   54   55 1   
    56   54   58 1   
    57   54   59 1   
    58   55   56 2   
    59   55   60 1   
    60   60   61 1   
    61   60   68 1   
    62   61   62 1   
    63   61   64 1   
    64   61   69 1   
    65   62   63 2   
    66   62   74 1   
    67   64   65 1   
    68   64   70 1   
    69   64   71 1   
    70   65   66 1   
    71   65   67 2   
    72   66   72 1   
    73   66   73 1   
    74   74   75 1   
    75   74   78 1   
    76   75   76 1   
    77   75   79 1   
    78   75   80 1   
    79   76   77 2   
    80   76   81 1   
    81   81   82 1   
    82   81   93 1   
    83   82   83 1   
    84   82   85 1   
    85   82   94 1   
    86   83   84 2   
    87   83  102 1   
    88   85   86 1   
    89   85   95 1   
    90   85   96 1   
    91   86   87 ar  
    92   86   88 ar  
    93   87   89 ar  
    94   87   97 1   
    95   88   90 ar  
    96   88   98 1   
    97   89   91 ar  
    98   89   99 1   
    99   90   91 ar  
   100   90  100 1   
   101   91   92 1   
   102   92  101 1   
   103  102  103 1   
   104  102  110 1   
   105  103  104 1   
   106  103  106 1   
   107  103  111 1   
   108  104  105 2   
   109  104  121 1   
   110  106  107 1   
   111  106  108 1   
   112  106  112 1   
   113  107  109 1   
   114  107  113 1   
   115  107  114 1   
   116  108  115 1   
   117  108  116 1   
   118  108  117 1   
   119  109  118 1   
   120  109  119 1   
   121  109  120 1   
   122  121  122 1   
   123  121  127 1   
   124  122  123 1   
   125  122  125 1   
   126  122  128 1   
   127  123  124 2   
   128  123  132 1   
   129  125  126 1   
   130  125  129 1   
   131  125  130 1   
   132  126  131 1   
   133  132  133 1   
   134  132  137 1   
   135  133  134 1   
   136  133  136 1   
   137  133  138 1   
   138  134  135 2   
   139  134  142 1   
   140  136  139 1   
   141  136  140 1   
   142  136  141 1   
   143  142  143 1   
   144  142  147 1   
   145  143  144 1   
   146  143  146 1   
   147  143  148 1   
   148  144  145 2   
   149  144  152 1   
   150  146  149 1   
   151  146  150 1   
   152  146  151 1   
   153  152  153 1   
   154  152  161 1   
   155  153  154 1   
   156  153  156 1   
   157  153  162 1   
   158  154  155 2   
   159  154  167 1   
   160  156  157 1   
   161  156  163 1   
   162  156  164 1   
   163  157  158 1   
   164  157  165 1   
   165  157  166 1   
   166  158  159 1   
   167  158  160 1   
   168  167  168 1   
   169  167  172 1   
   170  168  169 1   
   171  168  170 1   
   172  168  171 1   
   173  174  175 1   
   174  174  176 1   
   175  177  178 1   
   176  177  179 1   
   177  180  181 1   
   178  180  182 1   
   179  183  184 1   
   180  183  185 1   
@<TRIPOS>SUBSTRUCTURE
     1 MOL         1 TEMP              0 ****  ****    0 ROOT
