@<TRIPOS>MOLECULE
MOL
  198   191     1     0     0
SMALL
resp


@<TRIPOS>ATOM
      1 C1         -3.9320    0.7490    4.5030 c3        1 MOL     -0.531428
      2 C2         -5.0910   -0.3140    4.3290 c         1 MOL      0.705192
      3 O1         -4.9950   -1.4770    4.7560 o         1 MOL     -0.593851
      4 H1         -4.3530    1.6920    4.8510 hc        1 MOL      0.145779
      5 H2         -3.2100    0.3830    5.2330 hc        1 MOL      0.145779
      6 H3         -3.4340    0.9050    3.5460 hc        1 MOL      0.145779
      7 N1         -6.2130    0.1210    3.7950 n         1 MOL     -0.642123
      8 C3         -7.2100   -0.8160    3.1960 c3        1 MOL      0.414015
      9 C4         -6.8610   -1.0870    1.7470 c         1 MOL      0.436241
     10 O2         -5.8740   -0.4840    1.2590 o         1 MOL     -0.496329
     11 C5         -8.6650   -0.1980    3.1430 c3        1 MOL     -0.470987
     12 C6         -8.7750    1.0360    2.2820 c         1 MOL      0.854478
     13 O3         -8.3530    2.1640    2.6820 o         1 MOL     -0.730133
     14 O4         -9.1630    0.9130    1.1150 o         1 MOL     -0.730133
     15 H4         -6.1310    1.0370    3.3600 hn        1 MOL      0.349546
     16 H5         -7.2810   -1.8150    3.6040 h1        1 MOL      0.015164
     17 H6         -8.9500    0.1360    4.1350 hc        1 MOL      0.099342
     18 H7         -9.3910   -0.9080    2.7400 hc        1 MOL      0.099342
     19 N2         -7.6180   -1.9530    0.9820 n         1 MOL     -0.730292
     20 C7         -7.1060   -2.5120   -0.3130 c3        1 MOL      0.374748
     21 C8         -7.2730   -1.6210   -1.4960 c         1 MOL      0.283897
     22 O5         -7.2040   -2.1730   -2.6180 o         1 MOL     -0.540829
     23 C9         -7.6010   -3.9690   -0.5640 c3        1 MOL      0.228607
     24 C10        -7.5240   -4.9540    0.6080 c3        1 MOL     -0.085167
     25 C11        -6.0760   -5.1800    1.0550 c3        1 MOL     -0.033605
     26 C12        -5.3320   -6.1530    0.1470 c3        1 MOL      0.018705
     27 N3         -3.9800   -6.3860    0.7000 n4        1 MOL     -0.305274
     28 H8         -8.4150   -2.3420    1.4500 hn        1 MOL      0.350229
     29 H9         -6.0140   -2.5580   -0.3070 h1        1 MOL     -0.023295
     30 H10        -7.0060   -4.4310   -1.3560 hc        1 MOL     -0.040851
     31 H11        -8.6300   -4.0470   -0.9290 hc        1 MOL     -0.040851
     32 H12        -7.9470   -5.8980    0.2600 hc        1 MOL      0.013346
     33 H13        -8.1250   -4.5900    1.4340 hc        1 MOL      0.013346
     34 H14        -6.1240   -5.5790    2.0670 hc        1 MOL      0.035938
     35 H15        -5.6010   -4.2010    1.1580 hc        1 MOL      0.035938
     36 H16        -5.1070   -5.8100   -0.8610 hx        1 MOL      0.080141
     37 H17        -5.9460   -7.0550    0.1380 hx        1 MOL      0.080141
     38 H18        -3.4240   -5.5520    0.6550 hn        1 MOL      0.303672
     39 H19        -4.0230   -6.6060    1.6840 hn        1 MOL      0.303672
     40 H20        -3.5590   -7.2430    0.3750 hn        1 MOL      0.303672
     41 N4         -7.3850   -0.3130   -1.2570 n         1 MOL     -0.055355
     42 C13        -7.2290    0.6460   -2.3500 c3        1 MOL     -0.045652
     43 C14        -6.7660    2.0760   -1.8550 c         1 MOL      0.221058
     44 O6         -7.1000    2.4530   -0.7120 o         1 MOL     -0.556858
     45 C15        -8.4600    0.8410   -3.2480 c3        1 MOL     -0.150792
     46 C16        -9.7400    1.1540   -2.4240 c         1 MOL      0.514096
     47 O7        -10.6640    0.2800   -2.4390 o         1 MOL     -0.621307
     48 O8         -9.8470    2.2820   -1.9470 o         1 MOL     -0.621307
     49 H21        -7.4740   -0.0270   -0.2930 hn        1 MOL      0.267457
     50 H22        -6.4610    0.2730   -3.0440 h1        1 MOL      0.105051
     51 H23        -8.5700   -0.1000   -3.7820 hc        1 MOL      0.067901
     52 H24        -8.2340    1.5460   -4.0520 hc        1 MOL      0.067901
     53 N5         -5.9780    2.9010   -2.4930 n         1 MOL     -0.089867
     54 C17        -5.4680    2.9110   -3.8520 c3        1 MOL     -0.300826
     55 C18        -4.2030    2.0150   -4.0880 c         1 MOL      0.540539
     56 O9         -3.7360    1.9980   -5.2540 o         1 MOL     -0.532977
     57 H25        -5.9460    3.7580   -1.9610 hn        1 MOL      0.228845
     58 H26        -5.2190    3.9300   -4.1400 h1        1 MOL      0.145770
     59 H27        -6.2390    2.6520   -4.5830 h1        1 MOL      0.145770
     60 N6         -3.6200    1.4620   -3.0410 n         1 MOL     -0.420050
     61 C19        -2.4780    0.5460   -3.0690 c3        1 MOL      0.346274
     62 C20        -2.9310   -0.8380   -2.5840 c         1 MOL      0.280649
     63 O10        -3.8810   -0.8940   -1.7210 o         1 MOL     -0.439087
     64 C21        -1.2960    1.0840   -2.2610 c3        1 MOL     -0.275806
     65 C22        -0.9750    2.5700   -2.5530 c         1 MOL      0.734654
     66 O11        -0.3190    2.9040   -3.5840 o         1 MOL     -0.670476
     67 O12        -1.4490    3.4820   -1.7870 o         1 MOL     -0.670476
     68 H28        -4.0190    1.5810   -2.1240 hn        1 MOL      0.267619
     69 H29        -2.1310    0.4660   -4.0960 h1        1 MOL     -0.003705
     70 H30        -0.4510    0.4450   -2.5270 hc        1 MOL      0.048805
     71 H31        -1.5010    0.9230   -1.2010 hc        1 MOL      0.048805
     72 N7         -2.3270   -1.9470   -3.0070 n         1 MOL     -0.334929
     73 C23        -2.6960   -3.3520   -2.6060 c3        1 MOL     -0.074735
     74 C24        -1.9520   -3.8900   -1.3570 c         1 MOL      0.521641
     75 O13        -2.1160   -5.0870   -1.0560 o         1 MOL     -0.601869
     76 H32        -1.5570   -1.8750   -3.6510 hn        1 MOL      0.279353
     77 H33        -2.4930   -3.9940   -3.4600 h1        1 MOL      0.104648
     78 H34        -3.7780   -3.4730   -2.5050 h1        1 MOL      0.104648
     79 N8         -1.3490   -2.9790   -0.5460 n         1 MOL     -0.212055
     80 C25        -0.6880   -3.1520    0.8110 c3        1 MOL     -0.242929
     81 C26         0.2740   -1.9410    0.9990 c         1 MOL      0.601120
     82 O14         0.1590   -0.9590    0.3100 o         1 MOL     -0.370234
     83 C27        -1.6510   -3.2090    2.0250 c3        1 MOL      0.566787
     84 C28        -2.5010   -1.9570    2.0630 c3        1 MOL     -0.582633
     85 O15        -2.4050   -4.3840    1.9250 oh        1 MOL     -0.685205
     86 H35        -1.3920   -2.0380   -0.9060 hn        1 MOL      0.107367
     87 H36        -0.1440   -4.0980    0.7240 h1        1 MOL      0.096040
     88 H37        -1.1080   -3.2610    2.9720 h1        1 MOL     -0.035544
     89 H38        -1.8150   -5.1360    2.0080 ho        1 MOL      0.358760
     90 H39        -1.7740   -1.1460    2.0810 hc        1 MOL      0.184522
     91 H40        -3.2250   -1.9730    1.2490 hc        1 MOL      0.184522
     92 H41        -3.1630   -1.9470    2.9390 hc        1 MOL      0.184522
     93 N9          1.0860   -2.0530    2.0150 n         1 MOL     -0.469405
     94 C29         1.8680   -0.9830    2.7000 c3        1 MOL     -0.451286
     95 C30         2.8620   -0.3740    1.7200 c         1 MOL      0.729544
     96 O16         3.1080    0.8000    1.7060 o         1 MOL     -0.527211
     97 C31         2.5780   -1.6600    3.9060 c3        1 MOL      0.153111
     98 C32         1.5840   -2.2130    5.0030 c3        1 MOL      0.052364
     99 C33         3.5810   -0.7000    4.5940 c3        1 MOL     -0.471217
    100 C34         2.1750   -3.1750    5.9370 c3        1 MOL     -0.096924
    101 H42         0.9730   -2.8480    2.6270 hn        1 MOL      0.260253
    102 H43         1.1690   -0.2400    3.0830 h1        1 MOL      0.198500
    103 H44         3.1470   -2.4570    3.4310 hc        1 MOL      0.038886
    104 H45         0.7780   -2.7600    4.4970 hc        1 MOL      0.021513
    105 H46         1.2250   -1.3890    5.6070 hc        1 MOL      0.021513
    106 H47         4.2440   -0.3030    3.8210 hc        1 MOL      0.146882
    107 H48         3.1080    0.1680    5.0610 hc        1 MOL      0.146882
    108 H49         4.0830   -1.2370    5.4040 hc        1 MOL      0.146882
    109 H50         2.6410   -3.9110    5.2840 hc        1 MOL      0.021711
    110 H51         2.9380   -2.7570    6.6020 hc        1 MOL      0.021711
    111 H52         1.3390   -3.5970    6.5000 hc        1 MOL      0.021711
    112 N10         3.3810   -1.1670    0.8060 n         1 MOL     -0.461643
    113 C35         4.4850   -0.7880   -0.1490 c3        1 MOL      0.008545
    114 C36         5.3890   -1.9780   -0.4630 c         1 MOL      0.644875
    115 O17         4.9410   -3.1090   -0.3410 o         1 MOL     -0.552529
    116 C37         3.9710   -0.1410   -1.4240 c3        1 MOL      0.441171
    117 C38         2.9350   -0.9820   -2.1860 c3        1 MOL     -0.330850
    118 O18         3.4390    1.1840   -1.1740 oh        1 MOL     -0.583632
    119 H53         2.9350   -2.0660    0.7380 hn        1 MOL      0.245275
    120 H54         5.1830   -0.0740    0.2850 h1        1 MOL      0.019251
    121 H55         4.8820   -0.0890   -2.0240 h1        1 MOL     -0.076726
    122 H56         3.9540    1.6430   -0.5090 ho        1 MOL      0.383542
    123 H57         3.4030   -1.9550   -2.3370 hc        1 MOL      0.087002
    124 H58         2.0090   -1.0640   -1.6140 hc        1 MOL      0.087002
    125 H59         2.6180   -0.4550   -3.0950 hc        1 MOL      0.087002
    126 N11         6.6270   -1.7720   -0.8060 n         1 MOL     -0.546620
    127 C39         7.7080   -2.8030   -0.8560 c3        1 MOL     -0.021815
    128 C40         9.0210   -2.2580   -0.2860 c         1 MOL      0.646101
    129 O19         9.7340   -2.9600    0.4100 o         1 MOL     -0.559444
    130 C41         7.8910   -3.2610   -2.2990 c3        1 MOL      0.234853
    131 C42         8.8120   -4.5190   -2.5210 c3        1 MOL     -0.479093
    132 O20         8.3260   -2.1600   -3.0510 oh        1 MOL     -0.584643
    133 H60         6.8980   -0.8070   -0.9530 hn        1 MOL      0.302807
    134 H61         7.3600   -3.6380   -0.2510 h1        1 MOL      0.119035
    135 H62         6.8530   -3.5120   -2.5150 h1        1 MOL      0.053166
    136 H63         8.2420   -2.3890   -3.9790 ho        1 MOL      0.403043
    137 H64         8.7630   -4.8560   -3.5560 hc        1 MOL      0.138843
    138 H65         9.7690   -4.0960   -2.2280 hc        1 MOL      0.138843
    139 H66         8.6830   -5.3270   -1.8070 hc        1 MOL      0.138843
    140 N12         9.3240   -0.9530   -0.3990 n         1 MOL     -0.510845
    141 C43        10.5940   -0.3140   -0.0410 c3        1 MOL      0.152080
    142 C44        10.4310    1.2460   -0.0910 c         1 MOL      0.459153
    143 O21         9.6490    1.6880   -0.8820 o         1 MOL     -0.479923
    144 C45        11.7600   -0.7590   -0.8930 c3        1 MOL     -0.453180
    145 C46        11.5550   -0.1670   -2.3210 c3        1 MOL      0.112872
    146 C47        12.3170   -0.9600   -3.4180 c3        1 MOL     -0.018769
    147 C48        13.7920   -1.0350   -3.1190 c3        1 MOL      0.197889
    148 N13        14.5890   -1.2640   -4.3220 n4        1 MOL     -0.166010
    149 H67         8.6630   -0.4090   -0.9500 hn        1 MOL      0.283643
    150 H68        10.9740   -0.5300    0.9620 h1        1 MOL      0.062145
    151 H69        11.7660   -1.8420   -1.0460 hc        1 MOL      0.130343
    152 H70        12.7490   -0.4470   -0.5560 hc        1 MOL      0.130343
    153 H71        11.9160    0.8630   -2.4050 hc        1 MOL      0.054984
    154 H72        10.4950   -0.0950   -2.5610 hc        1 MOL      0.054984
    155 H73        11.9950   -0.3080   -4.2320 hc        1 MOL     -0.009368
    156 H74        11.9370   -1.9600   -3.5950 hc        1 MOL     -0.009368
    157 H75        14.0860   -1.8850   -2.5050 hx        1 MOL      0.009980
    158 H76        14.1380   -0.1730   -2.5430 hx        1 MOL      0.009980
    159 H77        14.7540   -0.4620   -4.9070 hn        1 MOL      0.197049
    160 H78        15.4210   -1.7650   -4.0420 hn        1 MOL      0.197049
    161 H79        14.1930   -2.0380   -4.8390 hn        1 MOL      0.197049
    162 N14        11.1780    1.9460    0.7820 n         1 MOL     -0.504698
    163 C49        10.9410    3.3800    0.9020 c3        1 MOL      0.171525
    164 C50         9.4660    3.7780    1.2700 c         1 MOL      0.325521
    165 O22         8.9780    4.7700    0.7400 o         1 MOL     -0.515093
    166 C51        11.8830    4.0400    1.9270 c3        1 MOL     -0.070109
    167 C52        13.3010    4.0180    1.3440 c3        1 MOL     -0.231330
    168 C53        14.1950    4.9240    2.1610 c         1 MOL      0.707941
    169 O23        14.4700    6.0110    1.6480 o         1 MOL     -0.671617
    170 O24        14.6010    4.5920    3.3070 o         1 MOL     -0.671617
    171 H80        11.7690    1.4640    1.4450 hn        1 MOL      0.344093
    172 H81        11.1570    3.8360   -0.0720 h1        1 MOL      0.074056
    173 H82        11.6910    3.5300    2.8710 hc        1 MOL      0.080262
    174 H83        11.5490    5.0800    2.0290 hc        1 MOL      0.080262
    175 H84        13.2560    4.3850    0.3180 hc        1 MOL      0.026208
    176 H85        13.6110    2.9680    1.3950 hc        1 MOL      0.026208
    177 N15         8.7000    3.1660    2.1680 n         1 MOL     -0.248230
    178 C54         9.1140    2.3880    3.2640 c3        1 MOL      0.047012
    179 H86         9.5100    1.4390    2.9050 h1        1 MOL      0.003699
    180 H87         9.8890    2.9200    3.8150 h1        1 MOL      0.003699
    181 H88         8.2630    2.2020    3.9200 h1        1 MOL      0.003699
    182 H89         7.7350    3.4830    2.2140 hn        1 MOL      0.269849
    183 Ca1        -9.2690    3.4140    0.2690 Ca        1 MOL      1.711668
    184 O25        -8.6850    5.6710   -1.2530 oh        1 MOL     -0.850630
    185 H90        -9.1530    6.4600   -0.9640 ho        1 MOL      0.416843
    186 H91        -7.7570    5.8940   -1.1800 ho        1 MOL      0.416843
    187 O26       -10.3260    5.4260    1.5070 oh        1 MOL     -0.850630
    188 H92       -11.2690    5.4760    1.6630 ho        1 MOL      0.416843
    189 H93       -10.0780    6.3160    1.2350 ho        1 MOL      0.416843
    190 O27        -7.3480    4.8570    1.3800 oh        1 MOL     -0.850630
    191 H94        -6.7490    4.6580    2.1000 ho        1 MOL      0.416843
    192 H95        -7.1550    5.7740    1.1590 ho        1 MOL      0.416843
    193 O28       -11.8010    2.7720    1.5190 oh        1 MOL     -0.850630
    194 H96       -12.0620    2.0380    2.0660 ho        1 MOL      0.416843
    195 H97       -12.3880    3.4890    1.7780 ho        1 MOL      0.416843
    196 O29       -11.3550    4.2120   -1.1530 oh        1 MOL     -0.850630
    197 H98       -11.3790    4.9370   -1.7750 ho        1 MOL      0.416843
    198 H99       -11.1690    3.4360   -1.6900 ho        1 MOL      0.416843
@<TRIPOS>BOND
     1    1    2 1   
     2    1    4 1   
     3    1    5 1   
     4    1    6 1   
     5    2    3 2   
     6    2    7 1   
     7    7    8 1   
     8    7   15 1   
     9    8    9 1   
    10    8   11 1   
    11    8   16 1   
    12    9   10 2   
    13    9   19 1   
    14   11   12 1   
    15   11   17 1   
    16   11   18 1   
    17   12   13 1   
    18   12   14 1   
    19   19   20 1   
    20   19   28 1   
    21   20   21 1   
    22   20   23 1   
    23   20   29 1   
    24   21   22 2   
    25   21   41 1   
    26   23   24 1   
    27   23   30 1   
    28   23   31 1   
    29   24   25 1   
    30   24   32 1   
    31   24   33 1   
    32   25   26 1   
    33   25   34 1   
    34   25   35 1   
    35   26   27 1   
    36   26   36 1   
    37   26   37 1   
    38   27   38 1   
    39   27   39 1   
    40   27   40 1   
    41   41   42 1   
    42   41   49 1   
    43   42   43 1   
    44   42   45 1   
    45   42   50 1   
    46   43   44 2   
    47   43   53 1   
    48   45   46 1   
    49   45   51 1   
    50   45   52 1   
    51   46   47 1   
    52   46   48 1   
    53   53   54 1   
    54   53   57 1   
    55   54   55 1   
    56   54   58 1   
    57   54   59 1   
    58   55   56 2   
    59   55   60 1   
    60   60   61 1   
    61   60   68 1   
    62   61   62 1   
    63   61   64 1   
    64   61   69 1   
    65   62   63 2   
    66   62   72 1   
    67   64   65 1   
    68   64   70 1   
    69   64   71 1   
    70   65   66 1   
    71   65   67 1   
    72   72   73 1   
    73   72   76 1   
    74   73   74 1   
    75   73   77 1   
    76   73   78 1   
    77   74   75 2   
    78   74   79 1   
    79   79   80 1   
    80   79   86 1   
    81   80   81 1   
    82   80   83 1   
    83   80   87 1   
    84   81   82 2   
    85   81   93 1   
    86   83   84 1   
    87   83   85 1   
    88   83   88 1   
    89   84   90 1   
    90   84   91 1   
    91   84   92 1   
    92   85   89 1   
    93   93   94 1   
    94   93  101 1   
    95   94   95 1   
    96   94   97 1   
    97   94  102 1   
    98   95   96 2   
    99   95  112 1   
   100   97   98 1   
   101   97   99 1   
   102   97  103 1   
   103   98  100 1   
   104   98  104 1   
   105   98  105 1   
   106   99  106 1   
   107   99  107 1   
   108   99  108 1   
   109  100  109 1   
   110  100  110 1   
   111  100  111 1   
   112  112  113 1   
   113  112  119 1   
   114  113  114 1   
   115  113  116 1   
   116  113  120 1   
   117  114  115 2   
   118  114  126 1   
   119  116  117 1   
   120  116  118 1   
   121  116  121 1   
   122  117  123 1   
   123  117  124 1   
   124  117  125 1   
   125  118  122 1   
   126  126  127 1   
   127  126  133 1   
   128  127  128 1   
   129  127  130 1   
   130  127  134 1   
   131  128  129 2   
   132  128  140 1   
   133  130  131 1   
   134  130  132 1   
   135  130  135 1   
   136  131  137 1   
   137  131  138 1   
   138  131  139 1   
   139  132  136 1   
   140  140  141 1   
   141  140  149 1   
   142  141  142 1   
   143  141  144 1   
   144  141  150 1   
   145  142  143 2   
   146  142  162 1   
   147  144  145 1   
   148  144  151 1   
   149  144  152 1   
   150  145  146 1   
   151  145  153 1   
   152  145  154 1   
   153  146  147 1   
   154  146  155 1   
   155  146  156 1   
   156  147  148 1   
   157  147  157 1   
   158  147  158 1   
   159  148  159 1   
   160  148  160 1   
   161  148  161 1   
   162  162  163 1   
   163  162  171 1   
   164  163  164 1   
   165  163  166 1   
   166  163  172 1   
   167  164  165 2   
   168  164  177 1   
   169  166  167 1   
   170  166  173 1   
   171  166  174 1   
   172  167  168 1   
   173  167  175 1   
   174  167  176 1   
   175  168  169 1   
   176  168  170 1   
   177  177  178 1   
   178  177  182 1   
   179  178  179 1   
   180  178  180 1   
   181  178  181 1   
   182  184  185 1   
   183  184  186 1   
   184  187  188 1   
   185  187  189 1   
   186  190  191 1   
   187  190  192 1   
   188  193  194 1   
   189  193  195 1   
   190  196  197 1   
   191  196  198 1   
@<TRIPOS>SUBSTRUCTURE
     1 MOL         1 TEMP              0 ****  ****    0 ROOT
