@<TRIPOS>MOLECULE
MOL
  198   191     1     0     0
SMALL
resp


@<TRIPOS>ATOM
      1 C1         -2.8760   -2.8520    1.5560 c3        1 MOL     -0.069984
      2 C2         -1.5800   -3.0980    0.8290 c         1 MOL      0.484918
      3 O1         -0.5430   -2.4240    1.1300 o         1 MOL     -0.533737
      4 H1         -3.5550   -3.6860    1.3810 hc        1 MOL     -0.013087
      5 H2         -2.6820   -2.7600    2.6250 hc        1 MOL     -0.013087
      6 H3         -3.3300   -1.9320    1.1890 hc        1 MOL     -0.013087
      7 N1         -1.5310   -4.1050   -0.0550 n         1 MOL     -0.540528
      8 C3         -0.4000   -4.4130   -0.8940 c3        1 MOL      0.255584
      9 C4          1.0230   -4.2080   -0.3590 c         1 MOL      0.527482
     10 O2          1.8610   -3.5350   -0.9210 o         1 MOL     -0.456929
     11 C5         -0.6040   -3.8710   -2.3660 c3        1 MOL     -0.219357
     12 C6          0.3850   -4.3940   -3.4180 c         1 MOL      0.634709
     13 O3          0.9180   -5.5080   -3.2390 o         1 MOL     -0.598086
     14 O4          0.6310   -3.6400   -4.4090 o         1 MOL     -0.598086
     15 H4         -2.3080   -4.7560   -0.1220 hn        1 MOL      0.322635
     16 H5         -0.3840   -5.4910   -1.0610 h1        1 MOL     -0.026808
     17 H6         -0.3520   -2.8070   -2.3020 hc        1 MOL      0.052254
     18 H7         -1.6300   -4.1210   -2.6370 hc        1 MOL      0.052254
     19 N2          1.3710   -4.7410    0.8560 n         1 MOL     -0.157557
     20 C7          2.7760   -4.9800    1.4180 c3        1 MOL     -0.875308
     21 C8          3.5360   -5.9350    0.4180 c         1 MOL      0.783939
     22 O5          3.0380   -6.9940   -0.0000 o         1 MOL     -0.613673
     23 C9          2.6510   -5.3900    2.9360 c3        1 MOL      0.632304
     24 C10         1.9160   -6.7430    3.1950 c3        1 MOL      0.046589
     25 C11         1.9690   -4.2930    3.7660 c3        1 MOL     -0.303416
     26 C12         2.2100   -7.3790    4.5560 c3        1 MOL     -0.422368
     27 H8          0.6780   -5.3330    1.2780 hn        1 MOL      0.148433
     28 H9          3.3860   -4.0720    1.4490 h1        1 MOL      0.320038
     29 H10         3.6790   -5.4720    3.2930 hc        1 MOL     -0.048853
     30 H11         2.3030   -7.4500    2.4680 hc        1 MOL      0.012168
     31 H12         0.8470   -6.5570    3.0700 hc        1 MOL      0.012168
     32 H13         2.6290   -3.4390    3.6830 hc        1 MOL      0.054110
     33 H14         0.9580   -4.0960    3.4030 hc        1 MOL      0.054110
     34 H15         1.9520   -4.4880    4.8390 hc        1 MOL      0.054110
     35 H16         1.6680   -8.3260    4.5090 hc        1 MOL      0.085267
     36 H17         3.2680   -7.6180    4.5390 hc        1 MOL      0.085267
     37 H18         2.0280   -6.7380    5.4210 hc        1 MOL      0.085267
     38 N3          4.7840   -5.7020    0.0850 n         1 MOL     -0.687541
     39 C13         5.7690   -4.7180    0.6010 c3        1 MOL      0.529753
     40 C14         6.7500   -4.3570   -0.6110 c         1 MOL      0.388109
     41 O6          7.9080   -4.1520   -0.3660 o         1 MOL     -0.405986
     42 C15         6.5870   -5.3230    1.7780 c3        1 MOL     -0.329619
     43 C16         7.4250   -4.2100    2.4970 c         1 MOL      0.672269
     44 O7          8.5980   -4.5640    2.8700 o         1 MOL     -0.718808
     45 O8          7.0240   -3.0570    2.4610 o         1 MOL     -0.718808
     46 H19         5.1770   -6.3120   -0.6250 hn        1 MOL      0.310411
     47 H20         5.2830   -3.8100    0.9400 h1        1 MOL     -0.092468
     48 H21         7.1800   -6.1430    1.3680 hc        1 MOL      0.038734
     49 H22         5.8500   -5.6800    2.5000 hc        1 MOL      0.038734
     50 N4          6.1880   -4.2400   -1.8440 n         1 MOL     -0.403117
     51 C17         6.9250   -4.1570   -3.1060 c3        1 MOL     -0.266922
     52 C18         7.5050   -2.6860   -3.4150 c         1 MOL      0.529108
     53 O9          8.5710   -2.5060   -4.0040 o         1 MOL     -0.562183
     54 H23         5.1750   -4.2900   -1.9080 hn        1 MOL      0.337096
     55 H24         6.2740   -4.4420   -3.9340 h1        1 MOL      0.140855
     56 H25         7.7940   -4.8030   -2.9420 h1        1 MOL      0.140855
     57 N5          6.8880   -1.5850   -2.9060 n         1 MOL     -0.293931
     58 C19         7.1260   -0.1570   -3.1940 c3        1 MOL      0.074366
     59 C20         7.6490    0.6450   -2.0720 c         1 MOL      0.427334
     60 O10         8.3990    1.6320   -2.2380 o         1 MOL     -0.499789
     61 C21         5.8510    0.4960   -3.8700 c3        1 MOL     -0.154963
     62 C22         4.6820    0.3650   -2.8790 c         1 MOL      0.656545
     63 O11         4.0480   -0.6850   -2.8050 o         1 MOL     -0.591842
     64 O12         4.4770    1.2980   -2.0440 o         1 MOL     -0.591842
     65 H26         5.9810   -1.7740   -2.5150 hn        1 MOL      0.190614
     66 H27         7.9260   -0.1200   -3.9330 h1        1 MOL      0.069814
     67 H28         5.5940   -0.0730   -4.7620 hc        1 MOL      0.032756
     68 H29         6.0840    1.5480   -4.0950 hc        1 MOL      0.032756
     69 N6          7.3850    0.1540   -0.8320 n         1 MOL     -0.257423
     70 C23         7.9220    0.8240    0.3700 c3        1 MOL     -0.129240
     71 C24         7.4080    2.2820    0.5310 c         1 MOL      0.363565
     72 O13         8.0050    3.0780    1.2820 o         1 MOL     -0.558525
     73 H30         6.8370   -0.6860   -0.6880 hn        1 MOL      0.268167
     74 H31         9.0060    0.7660    0.4040 h1        1 MOL      0.133428
     75 H32         7.5680    0.3150    1.2660 h1        1 MOL      0.133428
     76 N7          6.4420    2.8030   -0.2370 n         1 MOL      0.108409
     77 C25         6.1580    4.2130   -0.3680 c3        1 MOL      0.199380
     78 C26         5.7260    4.8730    1.0090 c         1 MOL      0.450622
     79 O14         5.8490    6.0980    1.2060 o         1 MOL     -0.552040
     80 C27         7.1580    5.0280   -1.1500 c3        1 MOL     -0.082818
     81 C28         7.2180    4.6420   -2.6250 c3        1 MOL     -0.068118
     82 C29         8.4980    4.8200   -3.4930 c         1 MOL      0.642192
     83 N8          9.3040    3.8190   -3.6210 n         1 MOL     -0.731614
     84 O15         8.8120    5.8370   -4.0700 o         1 MOL     -0.636954
     85 H33         6.0230    2.2030   -0.9310 hn        1 MOL     -0.097451
     86 H34         5.1590    4.2340   -0.8010 h1        1 MOL      0.024910
     87 H35         8.1370    4.9460   -0.6710 hc        1 MOL      0.030991
     88 H36         6.7950    6.0550   -1.1920 hc        1 MOL      0.030991
     89 H37         6.4310    5.1830   -3.1540 hc        1 MOL      0.013638
     90 H38         6.8820    3.6300   -2.8270 hc        1 MOL      0.013638
     91 H39         9.1550    2.9270   -3.1700 hn        1 MOL      0.323254
     92 H40        10.2350    4.0020   -3.9680 hn        1 MOL      0.323254
     93 N9          5.1510    4.0650    1.8470 n         1 MOL     -0.285881
     94 C30         4.6680    4.4110    3.1240 c3        1 MOL     -0.247458
     95 C31         3.2220    4.0160    3.3810 c         1 MOL      0.698974
     96 O16         2.6000    4.5300    4.3410 o         1 MOL     -0.602225
     97 C32         5.5750    3.9020    4.2440 c3        1 MOL      0.304942
     98 C33         5.7280    2.3380    4.1840 c3        1 MOL     -0.329555
     99 C34         6.9890    4.5210    4.1930 c3        1 MOL     -0.329555
    100 H41         5.0800    3.1140    1.5140 hn        1 MOL      0.151812
    101 H42         4.6140    5.4980    3.0660 h1        1 MOL      0.131903
    102 H43         5.1440    4.2070    5.1980 hc        1 MOL     -0.037728
    103 H44         6.2660    1.9910    5.0690 hc        1 MOL      0.081956
    104 H45         4.7530    1.8560    4.1690 hc        1 MOL      0.081956
    105 H46         6.3610    2.1490    3.3270 hc        1 MOL      0.081956
    106 H47         7.6490    3.9190    3.5730 hc        1 MOL      0.081956
    107 H48         7.0010    5.5250    3.7570 hc        1 MOL      0.081956
    108 H49         7.3500    4.4790    5.2240 hc        1 MOL      0.081956
    109 N10         2.6530    3.0970    2.5780 n         1 MOL     -0.592637
    110 C35         1.3320    2.5660    2.7510 c3        1 MOL      0.187160
    111 C36         0.5860    2.4440    1.4360 c         1 MOL      0.597762
    112 O17         1.0990    2.5210    0.3470 o         1 MOL     -0.541965
    113 C37         1.5080    1.2470    3.5320 c3        1 MOL     -0.156011
    114 C38         0.3580    0.3290    3.5140 c         1 MOL      0.623451
    115 N11         0.5550   -0.8230    2.9940 n         1 MOL     -0.729907
    116 O18        -0.7390    0.6280    3.9660 o         1 MOL     -0.604842
    117 H50         3.2480    2.6440    1.9080 hn        1 MOL      0.318255
    118 H51         0.7160    3.2230    3.3670 h1        1 MOL      0.056900
    119 H52         1.7760    1.3120    4.5910 hc        1 MOL      0.068477
    120 H53         2.3930    0.7580    3.1240 hc        1 MOL      0.068477
    121 H54         1.3870   -1.1760    2.5510 hn        1 MOL      0.360027
    122 H55        -0.2940   -1.3330    2.8030 hn        1 MOL      0.360027
    123 N12        -0.6970    2.1130    1.5570 n         1 MOL     -0.536680
    124 C39        -1.6380    2.0330    0.4320 c3        1 MOL      0.149044
    125 C40        -2.8660    2.9250    0.6420 c         1 MOL      0.506901
    126 O19        -3.4900    2.9050    1.7070 o         1 MOL     -0.524986
    127 C41        -2.0940    0.5650    0.2310 c3        1 MOL     -0.176194
    128 C42        -2.9550    0.2400   -0.8920 ca        1 MOL     -0.033039
    129 C43        -4.3110   -0.1570   -0.6970 ca        1 MOL     -0.058284
    130 C44        -2.5330    0.4480   -2.2120 ca        1 MOL     -0.058284
    131 C45        -5.1310   -0.3320   -1.8410 ca        1 MOL     -0.371705
    132 C46        -3.2980    0.3090   -3.3330 ca        1 MOL     -0.371705
    133 C47        -4.6310   -0.0590   -3.1440 ca        1 MOL      0.374263
    134 O20        -5.5550   -0.2380   -4.1740 oh        1 MOL     -0.573711
    135 H56        -1.0760    1.8330    2.4470 hn        1 MOL      0.239723
    136 H57        -1.2590    2.3860   -0.5330 h1        1 MOL      0.063531
    137 H58        -2.5200    0.1830    1.1670 hc        1 MOL      0.154634
    138 H59        -1.1070    0.1160    0.1340 hc        1 MOL      0.154634
    139 H60        -4.7090   -0.2230    0.3030 ha        1 MOL      0.135912
    140 H61        -1.5450    0.8480   -2.4080 ha        1 MOL      0.135912
    141 H62        -6.1910   -0.4730   -1.6950 ha        1 MOL      0.231727
    142 H63        -2.8980    0.6540   -4.2780 ha        1 MOL      0.231727
    143 H64        -6.4230   -0.4370   -3.8180 ho        1 MOL      0.444243
    144 N13        -3.2910    3.6190   -0.4270 n         1 MOL     -0.513968
    145 C48        -4.4820    4.5060   -0.4770 c3        1 MOL     -0.002628
    146 C49        -5.4610    3.9980   -1.5010 c         1 MOL      0.789765
    147 O21        -5.3230    4.2120   -2.8030 o         1 MOL     -0.607827
    148 C50        -4.0970    6.0000   -0.5280 c3        1 MOL      0.213021
    149 C51        -5.2720    6.9500   -0.3180 c3        1 MOL     -0.396675
    150 C52        -6.0370    7.2600   -1.6340 c         1 MOL      0.708007
    151 O22        -5.7150    8.1990   -2.4090 o         1 MOL     -0.620589
    152 O23        -7.0950    6.6240   -1.8830 o         1 MOL     -0.620589
    153 H65        -2.7280    3.5420   -1.2640 hn        1 MOL      0.284773
    154 H66        -4.9610    4.3230    0.4790 h1        1 MOL      0.048757
    155 H67        -3.6000    6.1910   -1.4790 hc        1 MOL     -0.014908
    156 H68        -3.2770    6.2430    0.1540 hc        1 MOL     -0.014908
    157 H69        -4.8850    7.8760    0.1030 hc        1 MOL      0.089183
    158 H70        -5.9640    6.4530    0.3570 hc        1 MOL      0.089183
    159 N14        -6.5120    3.3250   -1.1350 n         1 MOL     -0.639503
    160 C53        -6.8900    2.7080    0.1440 c3        1 MOL     -0.211707
    161 C54        -7.0670    3.5470    1.3950 c         1 MOL      0.487664
    162 O24        -7.9820    4.3810    1.4950 o         1 MOL     -0.555641
    163 C55        -8.1430    1.7840   -0.1550 c3        1 MOL      1.331776
    164 C56        -8.4480    0.8320    0.9880 c3        1 MOL     -1.537537
    165 C57        -9.5730   -0.1610    0.6040 c         1 MOL      1.083167
    166 O25        -9.6900   -1.1860    1.2930 o         1 MOL     -0.694831
    167 O26       -10.2230   -0.0350   -0.4720 o         1 MOL     -0.694831
    168 H71        -7.1740    3.4280   -1.8850 hn        1 MOL      0.307297
    169 H72        -6.1530    1.9510    0.4220 h1        1 MOL     -0.033323
    170 H73        -7.9230    1.2450   -1.0770 hc        1 MOL     -0.240734
    171 H74        -9.0250    2.3810   -0.3920 hc        1 MOL     -0.240734
    172 H75        -8.8770    1.3850    1.8230 hc        1 MOL      0.290984
    173 H76        -7.5060    0.4180    1.3460 hc        1 MOL      0.290984
    174 N15        -6.2340    3.2230    2.4040 n         1 MOL     -0.117612
    175 C58        -6.3200    3.7200    3.7990 c3        1 MOL     -0.164427
    176 H77        -5.7370    4.6350    3.8950 h1        1 MOL      0.076699
    177 H78        -7.3610    3.9250    4.0490 h1        1 MOL      0.076699
    178 H79        -5.9250    2.9660    4.4800 h1        1 MOL      0.076699
    179 H80        -5.5070    2.5800    2.1410 hn        1 MOL      0.200028
    180 Ca1       -10.6040   -3.1060   -0.1710 Ca        1 MOL      1.579301
    181 O27       -12.7130   -1.5630   -0.5750 oh        1 MOL     -0.826012
    182 O28        -9.8970   -5.3110   -1.6240 oh        1 MOL     -0.826012
    183 H81       -12.4050   -0.6840   -0.8180 ho        1 MOL      0.361469
    184 H82        -9.7700   -5.9200   -0.9050 ho        1 MOL      0.361469
    185 H83       -13.5950   -1.4140   -0.2200 ho        1 MOL      0.361469
    186 H84        -9.2770   -5.5970   -2.2950 ho        1 MOL      0.361469
    187 O29       -11.8170   -2.7740    2.3140 oh        1 MOL     -0.826012
    188 H85       -12.3140   -3.2590    2.9750 ho        1 MOL      0.361469
    189 H86       -11.8630   -1.8630    2.6060 ho        1 MOL      0.361469
    190 O30        -8.0900   -2.9430   -0.6330 oh        1 MOL     -0.826012
    191 H87        -7.4380   -2.6220   -0.0120 ho        1 MOL      0.361469
    192 H88        -7.5920   -3.4620   -1.2650 ho        1 MOL      0.361469
    193 O31       -12.4820   -4.9620   -0.0180 oh        1 MOL     -0.826012
    194 H89       -13.0680   -4.6810   -0.7260 ho        1 MOL      0.361469
    195 H90       -12.9720   -5.6320    0.4560 ho        1 MOL      0.361469
    196 O32       -10.4330   -2.3550   -3.0000 oh        1 MOL     -0.826012
    197 H91        -9.6020   -1.9880   -3.3040 ho        1 MOL      0.361469
    198 H92       -10.8890   -2.6100   -3.7980 ho        1 MOL      0.361469
@<TRIPOS>BOND
     1    1    2 1   
     2    1    4 1   
     3    1    5 1   
     4    1    6 1   
     5    2    3 2   
     6    2    7 1   
     7    7    8 1   
     8    7   15 1   
     9    8    9 1   
    10    8   11 1   
    11    8   16 1   
    12    9   10 2   
    13    9   19 1   
    14   11   12 1   
    15   11   17 1   
    16   11   18 1   
    17   12   13 1   
    18   12   14 1   
    19   19   20 1   
    20   19   27 1   
    21   20   21 1   
    22   20   23 1   
    23   20   28 1   
    24   21   22 2   
    25   21   38 1   
    26   23   24 1   
    27   23   25 1   
    28   23   29 1   
    29   24   26 1   
    30   24   30 1   
    31   24   31 1   
    32   25   32 1   
    33   25   33 1   
    34   25   34 1   
    35   26   35 1   
    36   26   36 1   
    37   26   37 1   
    38   38   39 1   
    39   38   46 1   
    40   39   40 1   
    41   39   42 1   
    42   39   47 1   
    43   40   41 2   
    44   40   50 1   
    45   42   43 1   
    46   42   48 1   
    47   42   49 1   
    48   43   44 1   
    49   43   45 1   
    50   50   51 1   
    51   50   54 1   
    52   51   52 1   
    53   51   55 1   
    54   51   56 1   
    55   52   53 2   
    56   52   57 1   
    57   57   58 1   
    58   57   65 1   
    59   58   59 1   
    60   58   61 1   
    61   58   66 1   
    62   59   60 2   
    63   59   69 1   
    64   61   62 1   
    65   61   67 1   
    66   61   68 1   
    67   62   63 1   
    68   62   64 1   
    69   69   70 1   
    70   69   73 1   
    71   70   71 1   
    72   70   74 1   
    73   70   75 1   
    74   71   72 2   
    75   71   76 1   
    76   76   77 1   
    77   76   85 1   
    78   77   78 1   
    79   77   80 1   
    80   77   86 1   
    81   78   79 2   
    82   78   93 1   
    83   80   81 1   
    84   80   87 1   
    85   80   88 1   
    86   81   82 1   
    87   81   89 1   
    88   81   90 1   
    89   82   83 1   
    90   82   84 2   
    91   83   91 1   
    92   83   92 1   
    93   93   94 1   
    94   93  100 1   
    95   94   95 1   
    96   94   97 1   
    97   94  101 1   
    98   95   96 2   
    99   95  109 1   
   100   97   98 1   
   101   97   99 1   
   102   97  102 1   
   103   98  103 1   
   104   98  104 1   
   105   98  105 1   
   106   99  106 1   
   107   99  107 1   
   108   99  108 1   
   109  109  110 1   
   110  109  117 1   
   111  110  111 1   
   112  110  113 1   
   113  110  118 1   
   114  111  112 2   
   115  111  123 1   
   116  113  114 1   
   117  113  119 1   
   118  113  120 1   
   119  114  115 1   
   120  114  116 2   
   121  115  121 1   
   122  115  122 1   
   123  123  124 1   
   124  123  135 1   
   125  124  125 1   
   126  124  127 1   
   127  124  136 1   
   128  125  126 2   
   129  125  144 1   
   130  127  128 1   
   131  127  137 1   
   132  127  138 1   
   133  128  129 ar  
   134  128  130 ar  
   135  129  131 ar  
   136  129  139 1   
   137  130  132 ar  
   138  130  140 1   
   139  131  133 ar  
   140  131  141 1   
   141  132  133 ar  
   142  132  142 1   
   143  133  134 1   
   144  134  143 1   
   145  144  145 1   
   146  144  153 1   
   147  145  146 1   
   148  145  148 1   
   149  145  154 1   
   150  146  147 2   
   151  146  159 1   
   152  148  149 1   
   153  148  155 1   
   154  148  156 1   
   155  149  150 1   
   156  149  157 1   
   157  149  158 1   
   158  150  151 1   
   159  150  152 1   
   160  159  160 1   
   161  159  168 1   
   162  160  161 1   
   163  160  163 1   
   164  160  169 1   
   165  161  162 2   
   166  161  174 1   
   167  163  164 1   
   168  163  170 1   
   169  163  171 1   
   170  164  165 1   
   171  164  172 1   
   172  164  173 1   
   173  165  166 1   
   174  165  167 1   
   175  174  175 1   
   176  174  179 1   
   177  175  176 1   
   178  175  177 1   
   179  175  178 1   
   180  181  183 1   
   181  181  185 1   
   182  182  184 1   
   183  182  186 1   
   184  187  188 1   
   185  187  189 1   
   186  190  191 1   
   187  190  192 1   
   188  193  194 1   
   189  193  195 1   
   190  196  197 1   
   191  196  198 1   
@<TRIPOS>SUBSTRUCTURE
     1 MOL         1 TEMP              0 ****  ****    0 ROOT
