@<TRIPOS>MOLECULE
MOL
  192   187     1     0     0
SMALL
resp


@<TRIPOS>ATOM
      1 C1          1.5770    9.1560    1.9590 c3        1 MOL     -0.352989
      2 C2          0.9600    7.7300    1.9460 c         1 MOL      0.654548
      3 O1          1.1130    7.0670    2.9730 o         1 MOL     -0.571933
      4 H1          2.2180    9.2810    1.0870 hc        1 MOL      0.088043
      5 H2          0.7780    9.8980    1.9310 hc        1 MOL      0.088043
      6 H3          2.1670    9.2900    2.8660 hc        1 MOL      0.088043
      7 N1          0.4910    7.1990    0.8120 n         1 MOL     -0.430714
      8 C3         -0.1060    5.9330    0.7310 c3        1 MOL     -0.003013
      9 C4          0.7290    4.6730    0.4230 c         1 MOL      0.380488
     10 O2          0.2520    3.5530    0.5330 o         1 MOL     -0.468425
     11 C5         -1.3340    5.9890   -0.2270 c3        1 MOL     -0.156041
     12 C6         -0.9490    6.4150   -1.6390 c         1 MOL      0.672440
     13 O3         -0.4830    7.5670   -1.7930 o         1 MOL     -0.701170
     14 O4         -1.0710    5.6190   -2.6100 o         1 MOL     -0.701170
     15 H4          0.4580    7.8290    0.0280 hn        1 MOL      0.239986
     16 H5         -0.4670    5.6880    1.7350 h1        1 MOL      0.105832
     17 H6         -2.0770    6.6560    0.2150 hc        1 MOL      0.065243
     18 H7         -1.7510    4.9880   -0.2550 hc        1 MOL      0.065243
     19 N2          2.0120    4.8580    0.1080 n         1 MOL     -0.158890
     20 C7          2.8420    3.8430   -0.5020 c3        1 MOL      0.017734
     21 C8          3.5700    3.0190    0.6050 c         1 MOL      0.474567
     22 O5          4.0270    3.5910    1.5700 o         1 MOL     -0.546390
     23 C9          3.8810    4.5030   -1.4590 c3        1 MOL      0.278036
     24 C10         3.4050    4.7240   -2.8930 c3        1 MOL     -0.540681
     25 C11         2.0610    5.5030   -2.9460 c3        1 MOL      0.627690
     26 C12         1.9100    6.0050   -4.3440 c3        1 MOL     -0.114692
     27 N3          0.8360    6.9990   -4.3990 n4        1 MOL     -0.271339
     28 H8          2.3570    5.7900    0.2620 hn        1 MOL      0.174921
     29 H9          2.2300    3.2430   -1.1750 h1        1 MOL      0.082355
     30 H10         4.7930    3.9150   -1.4850 hc        1 MOL     -0.062713
     31 H11         4.1910    5.4720   -1.0490 hc        1 MOL     -0.062713
     32 H12         3.2720    3.7340   -3.3370 hc        1 MOL      0.105683
     33 H13         4.2290    5.1270   -3.4890 hc        1 MOL      0.105683
     34 H14         2.2380    6.3530   -2.2850 hc        1 MOL     -0.088941
     35 H15         1.2140    4.8970   -2.6250 hc        1 MOL     -0.088941
     36 H16         1.6940    5.1340   -4.9780 hx        1 MOL      0.062614
     37 H17         2.8480    6.4870   -4.6120 hx        1 MOL      0.062614
     38 H18         0.6750    7.1520   -5.3890 hn        1 MOL      0.277857
     39 H19         0.0150    6.5670   -3.9910 hn        1 MOL      0.277857
     40 H20         1.0490    7.8930   -3.9820 hn        1 MOL      0.277857
     41 N4          3.7430    1.6960    0.5400 n         1 MOL     -0.426815
     42 C13         3.1710    0.7440   -0.4420 c3        1 MOL      0.032636
     43 C14         3.4860    1.1470   -1.9160 c         1 MOL      0.053097
     44 O6          2.6570    1.2910   -2.7860 o         1 MOL     -0.486307
     45 C15         1.7330    0.4140   -0.1330 c3        1 MOL      0.359987
     46 C16         1.3350    0.0390    1.2660 c         1 MOL      0.561261
     47 O7          0.1780   -0.2950    1.6190 o         1 MOL     -0.762637
     48 O8          2.0960    0.1340    2.2940 o         1 MOL     -0.762637
     49 H21         4.3920    1.3550    1.2350 hn        1 MOL      0.308012
     50 H22         3.7800   -0.1300   -0.1970 h1        1 MOL      0.065084
     51 H23         1.4730   -0.4550   -0.7420 hc        1 MOL     -0.043503
     52 H24         1.0390    1.2010   -0.4280 hc        1 MOL     -0.043503
     53 N5          4.7340    1.3750   -2.2470 n         1 MOL     -0.000378
     54 C17         5.9660    1.1090   -1.4620 c3        1 MOL     -0.020730
     55 C18         7.2910    1.2260   -2.2130 c         1 MOL      0.542594
     56 O9          7.2500    1.6880   -3.3400 o         1 MOL     -0.576131
     57 H25         4.9290    1.7000   -3.1800 hn        1 MOL      0.216260
     58 H26         5.8860    0.0790   -1.1180 h1        1 MOL      0.031278
     59 H27         5.9150    1.6480   -0.5090 h1        1 MOL      0.031278
     60 N6          8.3890    0.7540   -1.7020 n         1 MOL     -0.448719
     61 C19         8.6230    0.0000   -0.4040 c3        1 MOL     -0.039902
     62 C20         8.0200   -1.4390   -0.4040 c         1 MOL      0.587564
     63 O10         8.1500   -2.2210   -1.3460 o         1 MOL     -0.527594
     64 C21        10.1370    0.0930   -0.2360 c3        1 MOL     -0.097449
     65 C22        10.5980   -0.5130    1.0980 c         1 MOL      0.659044
     66 O11        11.8140   -0.9150    1.2570 o         1 MOL     -0.637909
     67 O12         9.7270   -0.5030    1.9550 o         1 MOL     -0.637909
     68 H28         9.1870    0.7510   -2.3260 hn        1 MOL      0.299941
     69 H29         8.1900    0.5720    0.4170 h1        1 MOL      0.065818
     70 H30        10.5490    1.0990   -0.2870 hc        1 MOL      0.037222
     71 H31        10.6690   -0.4800   -0.9940 hc        1 MOL      0.037222
     72 N7          7.2470   -1.7510    0.6190 n         1 MOL     -0.382524
     73 C23         6.6090   -3.0440    0.9440 c3        1 MOL     -0.130323
     74 C24         5.4490   -3.5020    0.0510 c         1 MOL      0.716095
     75 O13         5.0440   -2.8530   -0.8990 o         1 MOL     -0.494111
     76 H32         7.1340   -1.0060    1.2900 hn        1 MOL      0.279363
     77 H33         6.3290   -3.0440    2.0010 h1        1 MOL      0.100085
     78 H34         7.2880   -3.8950    0.8600 h1        1 MOL      0.100085
     79 N8          4.8950   -4.6980    0.4060 n         1 MOL     -0.713883
     80 C25         3.7460   -5.2990   -0.2280 c3        1 MOL      0.267411
     81 C26         2.5310   -4.3560   -0.2450 c         1 MOL      0.024934
     82 O14         2.3430   -3.4860    0.6260 o         1 MOL     -0.393507
     83 C27         3.3580   -6.6620    0.3160 c3        1 MOL      0.412349
     84 C28         2.8560   -6.6520    1.7610 c3        1 MOL     -0.345227
     85 O15         4.5310   -7.4270    0.1610 oh        1 MOL     -0.570240
     86 H35         5.3740   -5.2880    1.0720 hn        1 MOL      0.340952
     87 H36         3.9560   -5.4240   -1.2970 h1        1 MOL      0.024960
     88 H37         2.5730   -7.0210   -0.3540 h1        1 MOL     -0.044259
     89 H38         4.5110   -7.4720   -0.8020 ho        1 MOL      0.348098
     90 H39         1.9020   -6.1610    1.9460 hc        1 MOL      0.100278
     91 H40         2.6560   -7.7150    1.9120 hc        1 MOL      0.100278
     92 H41         3.6730   -6.3990    2.4260 hc        1 MOL      0.100278
     93 N9          1.5740   -4.6000   -1.1500 n         1 MOL     -0.234447
     94 C29         0.5010   -3.6680   -1.5330 c3        1 MOL     -0.001565
     95 C30        -0.7920   -4.4540   -1.6110 c         1 MOL      0.404380
     96 O16        -1.0620   -5.1820   -2.5850 o         1 MOL     -0.512385
     97 C31         0.8750   -2.9790   -2.8690 c3        1 MOL      0.026399
     98 C32         2.3280   -2.4520   -2.9010 c3        1 MOL      0.195530
     99 C33        -0.1620   -1.8340   -3.0290 c3        1 MOL     -0.334841
    100 C34         2.7800   -1.5890   -4.1090 c3        1 MOL     -0.338293
    101 H42         1.7270   -5.3350   -1.8290 hn        1 MOL      0.244005
    102 H43         0.4700   -2.8660   -0.8060 h1        1 MOL      0.118876
    103 H44         0.7750   -3.7420   -3.6410 hc        1 MOL      0.010205
    104 H45         2.9170   -3.3710   -2.9430 hc        1 MOL     -0.004736
    105 H46         2.6890   -2.0010   -1.9790 hc        1 MOL     -0.004736
    106 H47        -1.2220   -2.0840   -2.9170 hc        1 MOL      0.090896
    107 H48        -0.0190   -1.0080   -2.3320 hc        1 MOL      0.090896
    108 H49        -0.0880   -1.4460   -4.0410 hc        1 MOL      0.090896
    109 H50         2.7370   -2.1370   -5.0600 hc        1 MOL      0.089620
    110 H51         2.0890   -0.7490   -4.0810 hc        1 MOL      0.089620
    111 H52         3.7960   -1.2750   -3.8670 hc        1 MOL      0.089620
    112 N10        -1.5550   -4.3710   -0.5540 n         1 MOL     -0.314688
    113 C35        -2.9670   -4.8550   -0.4970 c3        1 MOL     -0.004580
    114 C36        -4.0460   -4.0180   -1.2620 c         1 MOL      0.408188
    115 O17        -5.1970   -4.4170   -1.3350 o         1 MOL     -0.507680
    116 C37        -3.3390   -5.2400    0.9200 c3        1 MOL      0.212236
    117 C38        -3.5180   -4.0410    1.8750 c3        1 MOL     -0.025936
    118 O18        -2.4150   -6.1610    1.5080 oh        1 MOL     -0.608073
    119 H53        -1.2260   -3.6890    0.1120 hn        1 MOL      0.237258
    120 H54        -2.9820   -5.8420   -0.9590 h1        1 MOL      0.087719
    121 H55        -4.3250   -5.7060    0.7930 h1        1 MOL      0.018184
    122 H56        -2.5770   -6.9540    0.9990 ho        1 MOL      0.391764
    123 H57        -4.2710   -3.3940    1.4280 hc        1 MOL      0.024675
    124 H58        -3.8230   -4.4410    2.8480 hc        1 MOL      0.024675
    125 H59        -2.6020   -3.4530    1.9250 hc        1 MOL      0.024675
    126 N11        -3.7440   -2.7780   -1.6410 n         1 MOL     -0.362444
    127 C39        -4.7730   -1.7460   -2.0300 c3        1 MOL      0.230069
    128 C40        -5.7300   -1.3610   -0.9860 c         1 MOL      0.197062
    129 O19        -5.6350   -1.9370    0.1470 o         1 MOL     -0.352580
    130 C41        -5.4610   -2.2200   -3.3570 c3        1 MOL      0.296592
    131 C42        -4.6510   -3.0230   -4.4010 c3        1 MOL     -0.389056
    132 O20        -5.8760   -1.1180   -4.1500 oh        1 MOL     -0.646754
    133 H60        -2.7470   -2.6410   -1.5390 hn        1 MOL      0.224713
    134 H61        -4.1450   -0.8720   -2.2180 h1        1 MOL      0.085838
    135 H62        -6.3720   -2.7280   -3.0650 h1        1 MOL      0.028872
    136 H63        -6.6710   -1.3590   -4.6230 ho        1 MOL      0.395912
    137 H64        -4.1100   -3.8330   -3.9080 hc        1 MOL      0.109603
    138 H65        -5.2390   -3.4800   -5.1970 hc        1 MOL      0.109603
    139 H66        -3.8750   -2.4050   -4.8680 hc        1 MOL      0.109603
    140 N12        -6.6270   -0.4240   -1.2530 n         1 MOL     -0.212245
    141 C43        -7.8860   -0.2580   -0.4870 c3        1 MOL      0.020095
    142 C44        -7.6990    0.1150    1.0410 c         1 MOL      0.508556
    143 O21        -8.4870   -0.3810    1.8500 o         1 MOL     -0.552784
    144 C45        -8.8500    0.7770   -1.1130 c3        1 MOL     -0.205446
    145 C46        -9.4560    0.4710   -2.4940 c3        1 MOL     -0.019689
    146 C47       -10.1750   -0.8410   -2.6150 c3        1 MOL     -0.143774
    147 C48       -10.8690   -1.0350   -3.9600 c3        1 MOL      0.041699
    148 N13       -12.1590   -0.3680   -4.0780 n4        1 MOL     -0.159211
    149 H67        -6.6170   -0.0490   -2.1860 hn        1 MOL      0.183298
    150 H68        -8.4400   -1.2060   -0.4820 h1        1 MOL      0.075244
    151 H69        -8.4150    1.7780   -1.0710 hc        1 MOL      0.085547
    152 H70        -9.6180    0.9170   -0.3570 hc        1 MOL      0.085547
    153 H71        -8.5920    0.5130   -3.1640 hc        1 MOL      0.041737
    154 H72        -9.9870    1.3270   -2.9060 hc        1 MOL      0.041737
    155 H73       -10.8940   -0.8960   -1.8040 hc        1 MOL      0.087357
    156 H74        -9.3880   -1.5870   -2.5130 hc        1 MOL      0.087357
    157 H75       -11.0690   -2.0980   -4.0920 hx        1 MOL      0.068296
    158 H76       -10.2040   -0.7540   -4.7780 hx        1 MOL      0.068296
    159 H77       -12.1340    0.6050   -4.3260 hn        1 MOL      0.223743
    160 H78       -12.6340   -0.7710   -4.8740 hn        1 MOL      0.223743
    161 H79       -12.7900   -0.4710   -3.2830 hn        1 MOL      0.223743
    162 N14        -6.6490    0.8100    1.4280 n         1 MOL     -0.295243
    163 C49        -6.2700    1.0350    2.8280 c3        1 MOL     -0.237550
    164 C50        -6.4920    2.4520    3.3640 c         1 MOL      0.584896
    165 O22        -5.9240    3.4610    2.9790 o         1 MOL     -0.497567
    166 C51        -4.8220    0.5700    3.0270 c3        1 MOL     -0.062451
    167 C52        -4.1250    0.6590    4.3610 c3        1 MOL      0.119606
    168 C53        -2.6630    0.1950    4.3510 c         1 MOL      0.488800
    169 O23        -2.2990   -0.9400    4.7230 o         1 MOL     -0.709238
    170 O24        -1.8610    0.9130    3.6860 o         1 MOL     -0.709238
    171 H80        -6.0800    1.2060    0.6990 hn        1 MOL      0.224219
    172 H81        -6.9810    0.5010    3.4630 h1        1 MOL      0.124526
    173 H82        -4.2340    1.2370    2.4060 hc        1 MOL      0.097466
    174 H83        -4.7060   -0.4590    2.6810 hc        1 MOL      0.097466
    175 H84        -4.7330    0.2490    5.1670 hc        1 MOL     -0.030993
    176 H85        -4.1130    1.7350    4.5550 hc        1 MOL     -0.030993
    177 N15        -7.3980    2.5730    4.3690 n         1 MOL     -0.360950
    178 C54        -8.1070    3.7640    4.8350 c3        1 MOL     -0.120437
    179 H86        -8.5990    3.5460    5.7840 h1        1 MOL      0.081984
    180 H87        -7.3970    4.5790    4.9740 h1        1 MOL      0.081984
    181 H88        -8.8560    4.0540    4.0980 h1        1 MOL      0.081984
    182 H89        -7.7970    1.7330    4.7720 hn        1 MOL      0.258292
    183 Ca1         0.4070   -0.3870    4.2380 Ca        1 MOL      1.794417
    184 O25         2.9870   -1.2770    4.8490 oh        1 MOL     -0.853146
    185 H90         3.2130   -1.6330    5.7040 ho        1 MOL      0.420056
    186 H91         3.4750   -1.8100    4.2230 ho        1 MOL      0.420056
    187 O26        -0.1090   -2.4680    5.9360 oh        1 MOL     -0.853146
    188 H92         0.4630   -2.7580    6.6540 ho        1 MOL      0.420056
    189 H93        -0.6460   -3.2300    5.7400 ho        1 MOL      0.420056
    190 O27         0.8410   -2.8810    3.0380 oh        1 MOL     -0.853146
    191 H94         0.2890   -3.6400    3.1950 ho        1 MOL      0.420056
    192 H95         1.1190   -2.9730    2.1190 ho        1 MOL      0.420056
@<TRIPOS>BOND
     1    1    2 1   
     2    1    4 1   
     3    1    5 1   
     4    1    6 1   
     5    2    3 2   
     6    2    7 1   
     7    7    8 1   
     8    7   15 1   
     9    8    9 1   
    10    8   11 1   
    11    8   16 1   
    12    9   10 2   
    13    9   19 1   
    14   11   12 1   
    15   11   17 1   
    16   11   18 1   
    17   12   13 1   
    18   12   14 1   
    19   19   20 1   
    20   19   28 1   
    21   20   21 1   
    22   20   23 1   
    23   20   29 1   
    24   21   22 2   
    25   21   41 1   
    26   23   24 1   
    27   23   30 1   
    28   23   31 1   
    29   24   25 1   
    30   24   32 1   
    31   24   33 1   
    32   25   26 1   
    33   25   34 1   
    34   25   35 1   
    35   26   27 1   
    36   26   36 1   
    37   26   37 1   
    38   27   38 1   
    39   27   39 1   
    40   27   40 1   
    41   41   42 1   
    42   41   49 1   
    43   42   43 1   
    44   42   45 1   
    45   42   50 1   
    46   43   44 2   
    47   43   53 1   
    48   45   46 1   
    49   45   51 1   
    50   45   52 1   
    51   46   47 1   
    52   46   48 1   
    53   53   54 1   
    54   53   57 1   
    55   54   55 1   
    56   54   58 1   
    57   54   59 1   
    58   55   56 2   
    59   55   60 1   
    60   60   61 1   
    61   60   68 1   
    62   61   62 1   
    63   61   64 1   
    64   61   69 1   
    65   62   63 2   
    66   62   72 1   
    67   64   65 1   
    68   64   70 1   
    69   64   71 1   
    70   65   66 1   
    71   65   67 1   
    72   72   73 1   
    73   72   76 1   
    74   73   74 1   
    75   73   77 1   
    76   73   78 1   
    77   74   75 2   
    78   74   79 1   
    79   79   80 1   
    80   79   86 1   
    81   80   81 1   
    82   80   83 1   
    83   80   87 1   
    84   81   82 2   
    85   81   93 1   
    86   83   84 1   
    87   83   85 1   
    88   83   88 1   
    89   84   90 1   
    90   84   91 1   
    91   84   92 1   
    92   85   89 1   
    93   93   94 1   
    94   93  101 1   
    95   94   95 1   
    96   94   97 1   
    97   94  102 1   
    98   95   96 2   
    99   95  112 1   
   100   97   98 1   
   101   97   99 1   
   102   97  103 1   
   103   98  100 1   
   104   98  104 1   
   105   98  105 1   
   106   99  106 1   
   107   99  107 1   
   108   99  108 1   
   109  100  109 1   
   110  100  110 1   
   111  100  111 1   
   112  112  113 1   
   113  112  119 1   
   114  113  114 1   
   115  113  116 1   
   116  113  120 1   
   117  114  115 2   
   118  114  126 1   
   119  116  117 1   
   120  116  118 1   
   121  116  121 1   
   122  117  123 1   
   123  117  124 1   
   124  117  125 1   
   125  118  122 1   
   126  126  127 1   
   127  126  133 1   
   128  127  128 1   
   129  127  130 1   
   130  127  134 1   
   131  128  129 2   
   132  128  140 1   
   133  130  131 1   
   134  130  132 1   
   135  130  135 1   
   136  131  137 1   
   137  131  138 1   
   138  131  139 1   
   139  132  136 1   
   140  140  141 1   
   141  140  149 1   
   142  141  142 1   
   143  141  144 1   
   144  141  150 1   
   145  142  143 2   
   146  142  162 1   
   147  144  145 1   
   148  144  151 1   
   149  144  152 1   
   150  145  146 1   
   151  145  153 1   
   152  145  154 1   
   153  146  147 1   
   154  146  155 1   
   155  146  156 1   
   156  147  148 1   
   157  147  157 1   
   158  147  158 1   
   159  148  159 1   
   160  148  160 1   
   161  148  161 1   
   162  162  163 1   
   163  162  171 1   
   164  163  164 1   
   165  163  166 1   
   166  163  172 1   
   167  164  165 2   
   168  164  177 1   
   169  166  167 1   
   170  166  173 1   
   171  166  174 1   
   172  167  168 1   
   173  167  175 1   
   174  167  176 1   
   175  168  169 1   
   176  168  170 1   
   177  177  178 1   
   178  177  182 1   
   179  178  179 1   
   180  178  180 1   
   181  178  181 1   
   182  184  185 1   
   183  184  186 1   
   184  187  188 1   
   185  187  189 1   
   186  190  191 1   
   187  190  192 1   
@<TRIPOS>SUBSTRUCTURE
     1 MOL         1 TEMP              0 ****  ****    0 ROOT
