@<TRIPOS>MOLECULE
MOL
  181   177     1     0     0
SMALL
resp


@<TRIPOS>ATOM
      1 C1         -5.5620    7.9420    0.7440 c3        1 MOL     -0.307018
      2 C2         -4.5340    6.9770    0.1010 c         1 MOL      0.614568
      3 O1         -3.5350    7.4820   -0.3750 o         1 MOL     -0.569621
      4 H1         -5.0330    8.7500    1.2490 hc        1 MOL      0.078302
      5 H2         -6.2050    8.3570   -0.0320 hc        1 MOL      0.078302
      6 H3         -6.1690    7.3970    1.4670 hc        1 MOL      0.078302
      7 N1         -4.6400    5.6860    0.1660 n         1 MOL     -0.489673
      8 C3         -5.4750    5.0200    1.1820 c3        1 MOL      0.280802
      9 C4         -6.8710    4.7040    0.6520 c         1 MOL      0.354737
     10 O2         -7.7370    4.9470    1.4410 o         1 MOL     -0.527608
     11 C5         -4.7700    3.7530    1.6560 c3        1 MOL     -0.331423
     12 C6         -4.5050    2.8940    0.4450 c         1 MOL      0.729130
     13 O3         -3.5340    3.0260   -0.2760 o         1 MOL     -0.637307
     14 O4         -5.3010    1.9220    0.2630 o         1 MOL     -0.637307
     15 H4         -3.8670    5.1590   -0.2170 hn        1 MOL      0.267289
     16 H5         -5.4830    5.6230    2.0930 h1        1 MOL      0.052297
     17 H6         -5.4930    3.2400    2.2850 hc        1 MOL      0.099510
     18 H7         -3.8510    3.9430    2.2050 hc        1 MOL      0.099510
     19 N2         -7.0600    4.2330   -0.6240 n         1 MOL     -0.236358
     20 C7         -8.3440    3.9150   -1.1300 c3        1 MOL      0.309026
     21 C8         -8.9770    2.5820   -0.7930 c         1 MOL      0.351067
     22 O5        -10.2090    2.4190   -0.9870 o         1 MOL     -0.542647
     23 C9         -8.2040    4.2530   -2.6290 c3        1 MOL     -0.175773
     24 H8         -6.2700    4.2990   -1.2550 hn        1 MOL      0.133475
     25 H9         -9.0830    4.6750   -0.8440 h1        1 MOL      0.009213
     26 H10        -7.9290    5.3050   -2.6340 hc        1 MOL      0.039207
     27 H11        -7.4600    3.5750   -3.0440 hc        1 MOL      0.039207
     28 H12        -9.1630    4.1280   -3.1290 hc        1 MOL      0.039207
     29 N3         -8.1250    1.6130   -0.3160 n         1 MOL     -0.124542
     30 C10        -8.5180    0.2420    0.0690 c3        1 MOL     -0.078405
     31 C11        -8.0550   -0.2760    1.4540 c         1 MOL      0.400792
     32 O6         -8.6260   -1.1970    1.9760 o         1 MOL     -0.543980
     33 C12        -7.9270   -0.7490   -0.9840 c3        1 MOL     -0.190414
     34 C13        -6.4050   -0.8000   -1.2490 c         1 MOL      0.586068
     35 O7         -5.9720   -0.2870   -2.3190 o         1 MOL     -0.677761
     36 O8         -5.5620   -1.2120   -0.4150 o         1 MOL     -0.677761
     37 H13        -7.1840    1.9030   -0.1020 hn        1 MOL      0.018815
     38 H14        -9.5880    0.0250    0.0250 h1        1 MOL      0.122116
     39 H15        -8.3930   -0.4260   -1.9070 hc        1 MOL      0.071429
     40 H16        -8.2990   -1.7290   -0.6960 hc        1 MOL      0.071429
     41 N4         -6.9290    0.2720    1.8850 n         1 MOL     -0.074800
     42 C14        -6.1930   -0.1360    3.0120 c3        1 MOL     -0.450881
     43 C15        -5.7080   -1.5080    3.2470 c         1 MOL      0.665595
     44 O9         -5.1350   -1.7850    4.3170 o         1 MOL     -0.575919
     45 H17        -6.4810    0.9310    1.2650 hn        1 MOL      0.178047
     46 H18        -6.8530    0.1550    3.8230 h1        1 MOL      0.147863
     47 H19        -5.2290    0.3800    3.0850 h1        1 MOL      0.147863
     48 N5         -5.8440   -2.3100    2.1910 n         1 MOL     -0.387854
     49 C16        -5.6000   -3.7830    2.1450 c3        1 MOL     -0.138317
     50 C17        -4.8050   -4.3900    1.0640 c         1 MOL      0.545161
     51 O10        -4.6710   -5.6140    0.9940 o         1 MOL     -0.563765
     52 C18        -6.9760   -4.5070    2.2390 c3        1 MOL     -0.143612
     53 C19        -7.5080   -4.2690    3.6460 c         1 MOL      0.672850
     54 N6         -8.5440   -3.4900    3.9040 n         1 MOL     -0.851903
     55 O11        -6.8850   -4.7570    4.5620 o         1 MOL     -0.553448
     56 H20        -6.0670   -1.9230    1.2840 hn        1 MOL      0.434171
     57 H21        -5.1650   -4.1000    3.0840 h1        1 MOL      0.143229
     58 H22        -6.9170   -5.5800    2.0330 hc        1 MOL      0.039955
     59 H23        -7.6150   -4.0320    1.5000 hc        1 MOL      0.039955
     60 H24        -8.8920   -2.9350    3.1250 hn        1 MOL      0.385446
     61 H25        -8.5980   -3.1160    4.8350 hn        1 MOL      0.385446
     62 N7         -4.0370   -3.6530    0.3220 n         1 MOL     -0.189610
     63 C20        -2.8920   -4.0750   -0.4890 c3        1 MOL     -0.032961
     64 C21        -2.2950   -3.0320   -1.4220 c         1 MOL      0.705323
     65 O12        -2.4970   -1.8260   -1.3450 o         1 MOL     -0.650330
     66 H26        -4.2380   -2.6650    0.3530 hn        1 MOL      0.040916
     67 H27        -3.2540   -4.8200   -1.2020 h1        1 MOL      0.086531
     68 H28        -2.1340   -4.4770    0.1850 h1        1 MOL      0.086531
     69 N8         -1.3240   -3.4410   -2.2450 n         1 MOL     -0.589585
     70 C22        -0.5750   -4.7140   -2.2990 c3        1 MOL      0.084816
     71 C23         0.8920   -4.4200   -1.9910 c         1 MOL      0.495141
     72 O13         1.6630   -5.3530   -1.8630 o         1 MOL     -0.541966
     73 C24        -0.8030   -5.4020   -3.6970 c3        1 MOL      0.313271
     74 C25         0.1320   -6.4610   -4.0150 c3        1 MOL     -0.307530
     75 O14        -2.0830   -5.8960   -3.6310 oh        1 MOL     -0.583930
     76 H29        -1.0010   -2.6900   -2.8300 hn        1 MOL      0.251194
     77 H30        -0.8930   -5.3360   -1.4610 h1        1 MOL      0.082870
     78 H31        -0.8440   -4.6090   -4.4540 h1        1 MOL     -0.020249
     79 H32        -2.5980   -5.1280   -3.8770 ho        1 MOL      0.372098
     80 H33        -0.2950   -7.1760   -4.7050 hc        1 MOL      0.096879
     81 H34         1.0540   -6.1160   -4.4730 hc        1 MOL      0.096879
     82 H35         0.3210   -7.1630   -3.1980 hc        1 MOL      0.096879
     83 N9          1.2500   -3.0460   -1.9430 n         1 MOL     -0.347442
     84 C26         2.6210   -2.4700   -1.8260 c3        1 MOL      0.036069
     85 C27         2.5130   -1.2100   -0.9740 c         1 MOL      0.529573
     86 O15         1.5650   -0.4490   -1.1470 o         1 MOL     -0.488669
     87 C28         3.1530   -2.1720   -3.2250 c3        1 MOL     -0.312720
     88 C29         3.0310   -3.3300   -4.2650 c3        1 MOL      0.355635
     89 C30         4.6200   -1.6360   -3.1690 c3        1 MOL      0.139470
     90 C31         3.7910   -3.1960   -5.6160 c3        1 MOL     -0.348440
     91 H36         0.4500   -2.4350   -1.9250 hn        1 MOL      0.200624
     92 H37         3.2500   -3.2360   -1.3760 h1        1 MOL      0.173693
     93 H38         2.6200   -1.2920   -3.5870 hc        1 MOL      0.094019
     94 H39         1.9880   -3.3490   -4.5780 hc        1 MOL     -0.066672
     95 H40         3.2670   -4.3080   -3.8500 hc        1 MOL     -0.066672
     96 H41         4.9380   -1.4900   -4.1910 hc        1 MOL     -0.020684
     97 H42         4.7790   -0.7030   -2.6160 hc        1 MOL     -0.020684
     98 H43         5.3520   -2.3560   -2.8010 hc        1 MOL     -0.020684
     99 H44         3.8510   -2.1570   -5.9240 hc        1 MOL      0.072837
    100 H45         4.8300   -3.5090   -5.5980 hc        1 MOL      0.072837
    101 H46         3.2890   -3.7590   -6.4060 hc        1 MOL      0.072837
    102 N10         3.2510   -1.0400    0.1320 n         1 MOL     -0.577784
    103 C32         4.5110   -1.7170    0.4570 c3        1 MOL      0.173717
    104 C33         5.6660   -0.6920    0.8420 c         1 MOL      0.737169
    105 O16         5.4630    0.4760    1.1640 o         1 MOL     -0.563653
    106 C34         4.2630   -2.7780    1.5310 c3        1 MOL     -0.102073
    107 C35         3.5060   -2.3350    2.8250 c         1 MOL      0.775498
    108 O17         3.6130   -1.1960    3.3160 o         1 MOL     -0.732058
    109 O18         2.9310   -3.2220    3.4330 o         1 MOL     -0.732058
    110 H47         3.0950   -0.1710    0.6150 hn        1 MOL      0.326225
    111 H48         4.8140   -2.3220   -0.4020 h1        1 MOL     -0.055441
    112 H49         5.2350   -3.2320    1.7490 hc        1 MOL     -0.034701
    113 H50         3.5860   -3.4910    1.0590 hc        1 MOL     -0.034701
    114 N11         6.8910   -1.1820    0.6700 n         1 MOL     -0.625847
    115 C36         8.2170   -0.5170    0.6970 c3        1 MOL      0.444224
    116 C37         8.8340   -0.1100   -0.6720 c         1 MOL      0.250441
    117 O19         8.6350   -0.8240   -1.6590 o         1 MOL     -0.488490
    118 C38         9.2540   -1.4070    1.4890 c3        1 MOL     -0.165939
    119 C39         8.6430   -1.9980    2.7540 ca        1 MOL      0.255517
    120 C40         8.5610   -3.3630    3.0050 ca        1 MOL     -0.388342
    121 C41         8.0990   -1.0540    3.7470 ca        1 MOL     -0.388342
    122 C42         7.8380   -3.7540    4.1950 ca        1 MOL      0.087392
    123 C43         7.4340   -1.4970    4.9180 ca        1 MOL      0.087392
    124 C44         7.3710   -2.8550    5.1770 ca        1 MOL     -0.326119
    125 H51         6.8830   -2.1510    0.3990 hn        1 MOL      0.288027
    126 H52         8.0420    0.3610    1.3180 h1        1 MOL      0.038725
    127 H53        10.0290   -0.7510    1.8750 hc        1 MOL      0.044057
    128 H54         9.6390   -2.2660    0.9340 hc        1 MOL      0.044057
    129 H55         8.8020   -4.0900    2.2500 ha        1 MOL      0.156359
    130 H56         8.1570    0.0230    3.7050 ha        1 MOL      0.156359
    131 H57         7.6440   -4.7890    4.4160 ha        1 MOL      0.084496
    132 H58         6.8330   -0.7590    5.4390 ha        1 MOL      0.084496
    133 H59         6.7020   -3.2390    5.9420 ha        1 MOL      0.163492
    134 N12         9.4930    1.0730   -0.6850 n         1 MOL     -0.161802
    135 C45         9.6370    1.9650    0.4790 c3        1 MOL     -0.052177
    136 C46         8.4270    2.9640    0.7410 c         1 MOL      0.506658
    137 O20         8.2680    3.3840    1.8990 o         1 MOL     -0.512495
    138 C47        10.9850    2.6560    0.1870 c3        1 MOL     -0.049182
    139 C48        11.7110    1.7180   -0.7700 c3        1 MOL     -0.022052
    140 C49        10.6350    1.1920   -1.6370 c3        1 MOL     -0.023455
    141 H60         9.7960    1.4070    1.4020 h1        1 MOL      0.061401
    142 H61        10.7720    3.6070   -0.3050 hc        1 MOL      0.034225
    143 H62        11.5840    2.9210    1.0570 hc        1 MOL      0.034225
    144 H63        12.5270    2.1540   -1.3370 hc        1 MOL      0.023968
    145 H64        12.1760    0.9020   -0.2140 hc        1 MOL      0.023968
    146 H65        10.3720    1.9230   -2.3960 h1        1 MOL      0.063809
    147 H66        10.9600    0.2760   -2.1210 h1        1 MOL      0.063809
    148 N13         7.5890    3.3190   -0.2980 n         1 MOL     -0.512562
    149 C50         6.2980    3.8020    0.1420 c3        1 MOL      0.111033
    150 C51         6.4440    5.2280    0.7680 c         1 MOL      0.508523
    151 O21         6.8390    6.1620    0.1110 o         1 MOL     -0.611404
    152 C52         5.4010    3.8650   -1.1400 c3        1 MOL     -0.058663
    153 C53         4.8860    2.4260   -1.5230 c3        1 MOL     -0.124964
    154 C54         4.0510    2.6110   -2.7860 c         1 MOL      0.733981
    155 O22         2.9860    1.9470   -2.9240 o         1 MOL     -0.739687
    156 O23         4.4090    3.3640   -3.7100 o         1 MOL     -0.739687
    157 H67         7.9350    3.3540   -1.2400 hn        1 MOL      0.372163
    158 H68         5.8640    3.1300    0.8820 h1        1 MOL      0.102640
    159 H69         6.0930    4.2300   -1.9010 hc        1 MOL      0.017659
    160 H70         4.5280    4.4990   -0.9500 hc        1 MOL      0.017659
    161 H71         4.2210    2.0800   -0.7240 hc        1 MOL      0.021110
    162 H72         5.7150    1.7500   -1.6760 hc        1 MOL      0.021110
    163 N14         6.1040    5.5810    1.9790 n         1 MOL     -0.347686
    164 C55         5.6450    4.7800    3.0860 c3        1 MOL     -0.123794
    165 H73         5.0200    5.3890    3.7390 h1        1 MOL      0.076702
    166 H74         5.0630    3.9390    2.7090 h1        1 MOL      0.076702
    167 H75         6.5020    4.4080    3.6460 h1        1 MOL      0.076702
    168 H76         6.3100    6.5690    2.1090 hn        1 MOL      0.263852
    169 Ca1        -3.5520    0.5230   -1.2690 Ca        1 MOL      1.795222
    170 O24        -3.0100   -0.3710   -4.0500 oh        1 MOL     -0.897246
    171 H77        -3.5260   -0.4400   -4.8530 ho        1 MOL      0.438750
    172 H78        -2.1570   -0.7450   -4.2870 ho        1 MOL      0.438750
    173 O25        -1.0290    0.9670   -1.9550 oh        1 MOL     -0.897246
    174 H79        -0.5460    1.6720   -2.3970 ho        1 MOL      0.438750
    175 H80        -0.6390    0.1670   -2.3060 ho        1 MOL      0.438750
    176 O26        -3.0760   -0.1680    1.3200 oh        1 MOL     -0.897246
    177 H81        -2.9260   -1.0560    1.6530 ho        1 MOL      0.438750
    178 H82        -2.5260    0.3920    1.8850 ho        1 MOL      0.438750
    179 O27        -4.4670    2.3910   -2.9800 oh        1 MOL     -0.897246
    180 H83        -4.6510    3.3360   -2.9780 ho        1 MOL      0.438750
    181 H84        -4.6000    2.1230   -3.8910 ho        1 MOL      0.438750
@<TRIPOS>BOND
     1    1    2 1   
     2    1    4 1   
     3    1    5 1   
     4    1    6 1   
     5    2    3 2   
     6    2    7 1   
     7    7    8 1   
     8    7   15 1   
     9    8    9 1   
    10    8   11 1   
    11    8   16 1   
    12    9   10 2   
    13    9   19 1   
    14   11   12 1   
    15   11   17 1   
    16   11   18 1   
    17   12   13 1   
    18   12   14 1   
    19   19   20 1   
    20   19   24 1   
    21   20   21 1   
    22   20   23 1   
    23   20   25 1   
    24   21   22 2   
    25   21   29 1   
    26   23   26 1   
    27   23   27 1   
    28   23   28 1   
    29   29   30 1   
    30   29   37 1   
    31   30   31 1   
    32   30   33 1   
    33   30   38 1   
    34   31   32 2   
    35   31   41 1   
    36   33   34 1   
    37   33   39 1   
    38   33   40 1   
    39   34   35 1   
    40   34   36 1   
    41   41   42 1   
    42   41   45 1   
    43   42   43 1   
    44   42   46 1   
    45   42   47 1   
    46   43   44 2   
    47   43   48 1   
    48   48   49 1   
    49   48   56 1   
    50   49   50 1   
    51   49   52 1   
    52   49   57 1   
    53   50   51 2   
    54   50   62 1   
    55   52   53 1   
    56   52   58 1   
    57   52   59 1   
    58   53   54 1   
    59   53   55 2   
    60   54   60 1   
    61   54   61 1   
    62   62   63 1   
    63   62   66 1   
    64   63   64 1   
    65   63   67 1   
    66   63   68 1   
    67   64   65 2   
    68   64   69 1   
    69   69   70 1   
    70   69   76 1   
    71   70   71 1   
    72   70   73 1   
    73   70   77 1   
    74   71   72 2   
    75   71   83 1   
    76   73   74 1   
    77   73   75 1   
    78   73   78 1   
    79   74   80 1   
    80   74   81 1   
    81   74   82 1   
    82   75   79 1   
    83   83   84 1   
    84   83   91 1   
    85   84   85 1   
    86   84   87 1   
    87   84   92 1   
    88   85   86 2   
    89   85  102 1   
    90   87   88 1   
    91   87   89 1   
    92   87   93 1   
    93   88   90 1   
    94   88   94 1   
    95   88   95 1   
    96   89   96 1   
    97   89   97 1   
    98   89   98 1   
    99   90   99 1   
   100   90  100 1   
   101   90  101 1   
   102  102  103 1   
   103  102  110 1   
   104  103  104 1   
   105  103  106 1   
   106  103  111 1   
   107  104  105 2   
   108  104  114 1   
   109  106  107 1   
   110  106  112 1   
   111  106  113 1   
   112  107  108 1   
   113  107  109 1   
   114  114  115 1   
   115  114  125 1   
   116  115  116 1   
   117  115  118 1   
   118  115  126 1   
   119  116  117 2   
   120  116  134 1   
   121  118  119 1   
   122  118  127 1   
   123  118  128 1   
   124  119  120 ar  
   125  119  121 ar  
   126  120  122 ar  
   127  120  129 1   
   128  121  123 ar  
   129  121  130 1   
   130  122  124 ar  
   131  122  131 1   
   132  123  124 ar  
   133  123  132 1   
   134  124  133 1   
   135  134  135 1   
   136  134  140 1   
   137  135  136 1   
   138  135  138 1   
   139  135  141 1   
   140  136  137 2   
   141  136  148 1   
   142  138  139 1   
   143  138  142 1   
   144  138  143 1   
   145  139  140 1   
   146  139  144 1   
   147  139  145 1   
   148  140  146 1   
   149  140  147 1   
   150  148  149 1   
   151  148  157 1   
   152  149  150 1   
   153  149  152 1   
   154  149  158 1   
   155  150  151 2   
   156  150  163 1   
   157  152  153 1   
   158  152  159 1   
   159  152  160 1   
   160  153  154 1   
   161  153  161 1   
   162  153  162 1   
   163  154  155 1   
   164  154  156 1   
   165  163  164 1   
   166  163  168 1   
   167  164  165 1   
   168  164  166 1   
   169  164  167 1   
   170  170  171 1   
   171  170  172 1   
   172  173  174 1   
   173  173  175 1   
   174  176  177 1   
   175  176  178 1   
   176  179  180 1   
   177  179  181 1   
@<TRIPOS>SUBSTRUCTURE
     1 MOL         1 TEMP              0 ****  ****    0 ROOT
