@<TRIPOS>MOLECULE
MOL
  181   177     1     0     0
SMALL
resp


@<TRIPOS>ATOM
      1 C1         -4.9810   -4.5610   -3.7130 c3        1 MOL     -0.288033
      2 C2         -6.1330   -3.6170   -3.2000 c         1 MOL      0.812996
      3 O1         -5.9050   -2.4610   -2.9120 o         1 MOL     -0.613833
      4 H1         -5.3180   -5.0940   -4.6020 hc        1 MOL      0.063142
      5 H2         -4.1040   -3.9640   -3.9580 hc        1 MOL      0.063142
      6 H3         -4.7260   -5.2800   -2.9340 hc        1 MOL      0.063142
      7 N1         -7.4210   -4.0080   -3.1620 n         1 MOL     -0.807689
      8 C3         -8.5650   -3.1480   -2.8150 c3        1 MOL      0.407690
      9 C4         -8.5960   -2.8500   -1.2830 c         1 MOL      0.585663
     10 O2         -8.4010   -3.7400   -0.4530 o         1 MOL     -0.583266
     11 C5         -9.8850   -3.8340   -3.3300 c3        1 MOL     -0.357934
     12 C6        -11.1340   -2.9600   -3.0900 c         1 MOL      0.698763
     13 O3        -12.2930   -3.3780   -3.3480 o         1 MOL     -0.706094
     14 O4        -11.0100   -1.7520   -3.0060 o         1 MOL     -0.706094
     15 H4         -7.6500   -4.9550   -3.4410 hn        1 MOL      0.347300
     16 H5         -8.6510   -2.2210   -3.3840 h1        1 MOL      0.020485
     17 H6         -9.9730   -4.8370   -2.9180 hc        1 MOL      0.046254
     18 H7         -9.7340   -3.9150   -4.4060 hc        1 MOL      0.046254
     19 N2         -8.6080   -1.5710   -0.9120 n         1 MOL     -0.563162
     20 C7         -8.3880   -1.1030    0.4270 c3        1 MOL      0.320216
     21 C8         -6.8910   -1.0470    0.6910 c         1 MOL      0.691102
     22 O5         -6.1900   -0.5280   -0.1840 o         1 MOL     -0.546124
     23 C9         -9.0070    0.1950    0.6870 c3        1 MOL     -0.443507
     24 H8         -8.6410   -0.9270   -1.6870 hn        1 MOL      0.277196
     25 H9         -8.7560   -1.9120    1.0630 h1        1 MOL     -0.002067
     26 H10        -8.7570    0.5890    1.6660 hc        1 MOL      0.110030
     27 H11        -8.6890    0.8630   -0.1210 hc        1 MOL      0.110030
     28 H12       -10.0920    0.0790    0.7800 hc        1 MOL      0.110030
     29 N3         -6.4180   -1.3350    1.9200 n         1 MOL     -0.801581
     30 C10        -4.9960   -0.9520    2.2530 c3        1 MOL      0.437096
     31 C11        -4.8440    0.4390    2.9040 c         1 MOL      0.320877
     32 O6         -4.3270    0.6370    3.9900 o         1 MOL     -0.485699
     33 C12        -4.3930   -2.0420    3.1600 c3        1 MOL     -0.057348
     34 C13        -2.8650   -1.9290    3.4750 c         1 MOL      0.582169
     35 O7         -2.1200   -1.2540    2.7240 o         1 MOL     -0.703260
     36 O8         -2.3430   -2.6300    4.3830 o         1 MOL     -0.703260
     37 H13        -7.0860   -1.5970    2.6440 hn        1 MOL      0.341595
     38 H14        -4.3830   -0.8670    1.3600 h1        1 MOL      0.018483
     39 H15        -4.5680   -3.0090    2.6970 hc        1 MOL      0.005205
     40 H16        -4.8990   -2.1990    4.1110 hc        1 MOL      0.005205
     41 N4         -5.1780    1.4510    2.0810 n         1 MOL     -0.161139
     42 C14        -5.3690    2.8040    2.4880 c3        1 MOL     -0.349489
     43 C15        -4.1000    3.5640    2.8090 c         1 MOL      0.620888
     44 O9         -4.1560    4.6970    3.3310 o         1 MOL     -0.585429
     45 H17        -5.4090    1.2450    1.1170 hn        1 MOL      0.212416
     46 H18        -5.9710    2.7580    3.3900 h1        1 MOL      0.132832
     47 H19        -5.9390    3.3110    1.7140 h1        1 MOL      0.132832
     48 N5         -2.9290    2.9100    2.5710 n         1 MOL     -0.284988
     49 C16        -1.5870    3.4580    2.7630 c3        1 MOL      0.045381
     50 C17        -1.2420    4.7100    1.8900 c         1 MOL      0.419265
     51 O10        -1.7670    4.8870    0.7760 o         1 MOL     -0.527913
     52 C18        -0.5660    2.3280    2.7280 c3        1 MOL     -0.166844
     53 C19         0.6740    2.5240    3.5760 c         1 MOL      0.547336
     54 N6          1.7040    1.7320    3.4600 n         1 MOL     -0.592837
     55 O11         0.6620    3.4230    4.4010 o         1 MOL     -0.602311
     56 H20        -3.0620    2.0120    2.1280 hn        1 MOL      0.161767
     57 H21        -1.5180    3.8860    3.7660 h1        1 MOL      0.031541
     58 H22        -0.2290    2.2090    1.6990 hc        1 MOL      0.138986
     59 H23        -0.9460    1.4240    3.2110 hc        1 MOL      0.138986
     60 H24         1.7140    0.9140    2.8700 hn        1 MOL      0.277882
     61 H25         2.4940    1.9570    4.0630 hn        1 MOL      0.277882
     62 N7         -0.5460    5.6700    2.4360 n         1 MOL     -0.199140
     63 C20        -0.4210    7.0180    1.8180 c3        1 MOL     -0.358367
     64 C21         0.5630    7.0280    0.6540 c         1 MOL      0.520365
     65 O12         1.8200    6.9350    0.9020 o         1 MOL     -0.517821
     66 H26        -0.1810    5.5420    3.3700 hn        1 MOL      0.267297
     67 H27         0.0260    7.6520    2.5780 h1        1 MOL      0.156196
     68 H28        -1.4370    7.3330    1.5810 h1        1 MOL      0.156196
     69 N8          0.0470    7.3470   -0.5320 n         1 MOL     -0.265441
     70 C22         0.6100    7.6070   -1.8840 c3        1 MOL     -0.353142
     71 C23         1.4000    6.3830   -2.4360 c         1 MOL      0.527118
     72 O13         2.1390    6.5330   -3.4560 o         1 MOL     -0.574530
     73 C24        -0.4230    8.1370   -2.7930 c3        1 MOL      0.470496
     74 C25        -1.5290    7.1330   -2.9490 c3        1 MOL     -0.448004
     75 O14        -0.8740    9.4110   -2.2910 oh        1 MOL     -0.618818
     76 H29        -0.9440    7.5480   -0.5680 hn        1 MOL      0.220624
     77 H30         1.2680    8.4610   -1.7470 h1        1 MOL      0.182179
     78 H31         0.0130    8.3810   -3.7680 h1        1 MOL      0.049113
     79 H32        -1.6030    9.1600   -1.7260 ho        1 MOL      0.372627
     80 H33        -2.1860    7.4020   -3.7750 hc        1 MOL      0.116527
     81 H34        -1.0760    6.1670   -3.1730 hc        1 MOL      0.116527
     82 H35        -2.1220    7.0080   -2.0390 hc        1 MOL      0.116527
     83 N9          1.2980    5.1640   -1.8760 n         1 MOL     -0.249736
     84 C26         1.8090    3.9100   -2.3460 c3        1 MOL     -0.047521
     85 C27         1.9570    2.9610   -1.1640 c         1 MOL      0.581727
     86 O15         1.4640    3.2590   -0.0870 o         1 MOL     -0.496201
     87 C28         0.7710    3.3280   -3.3600 c3        1 MOL      0.098853
     88 C29        -0.5950    2.9260   -2.7620 c3        1 MOL      0.013964
     89 C30         0.6830    4.0830   -4.7410 c3        1 MOL     -0.054902
     90 C31        -1.7660    2.7830   -3.7650 c3        1 MOL     -0.202500
     91 H36         0.6220    5.1680   -1.1290 hn        1 MOL      0.194231
     92 H37         2.8140    3.9310   -2.7680 h1        1 MOL      0.083118
     93 H38         1.2140    2.3690   -3.6130 hc        1 MOL     -0.050043
     94 H39        -0.8700    3.6110   -1.9510 hc        1 MOL      0.045776
     95 H40        -0.5310    1.9590   -2.2590 hc        1 MOL      0.045776
     96 H41         0.1150    5.0050   -4.6220 hc        1 MOL      0.009730
     97 H42         1.6420    4.1960   -5.2390 hc        1 MOL      0.009730
     98 H43         0.0820    3.4020   -5.3430 hc        1 MOL      0.009730
     99 H44        -1.8180    3.7090   -4.3570 hc        1 MOL      0.058604
    100 H45        -1.5210    1.9400   -4.4120 hc        1 MOL      0.058604
    101 H46        -2.7350    2.6310   -3.3010 hc        1 MOL      0.058604
    102 N10         2.5050    1.8030   -1.3650 n         1 MOL     -0.612872
    103 C32         2.6390    0.7650   -0.3680 c3        1 MOL      0.033616
    104 C33         3.9370   -0.0240   -0.3020 c         1 MOL      0.759472
    105 O16         3.9450   -1.0910    0.2740 o         1 MOL     -0.657416
    106 C34         1.5100   -0.2590   -0.6280 c3        1 MOL     -0.152262
    107 C35         1.0500   -0.9430    0.6590 c         1 MOL      0.526017
    108 O17         1.3270   -0.3880    1.7440 o         1 MOL     -0.667167
    109 O18         0.2580   -1.9000    0.6150 o         1 MOL     -0.667167
    110 H47         2.9120    1.6130   -2.2640 hn        1 MOL      0.307799
    111 H48         2.4970    1.2300    0.6070 h1        1 MOL      0.064075
    112 H49         1.8440   -0.9390   -1.4030 hc        1 MOL      0.103398
    113 H50         0.6150    0.3110   -0.8710 hc        1 MOL      0.103398
    114 N11         5.0390    0.4350   -0.7910 n         1 MOL     -0.501577
    115 C36         6.3530   -0.1710   -0.4930 c3        1 MOL      0.104161
    116 C37         6.4600   -1.4220   -1.4670 c         1 MOL      0.356964
    117 O19         5.9940   -1.3970   -2.6090 o         1 MOL     -0.498988
    118 C38         7.4550    0.9230   -0.6670 c3        1 MOL     -0.179784
    119 C39         8.8130    0.4520   -0.3200 ca        1 MOL      0.077310
    120 C40         9.3580    0.6310    1.0130 ca        1 MOL     -0.174660
    121 C41         9.5940   -0.2000   -1.2740 ca        1 MOL     -0.174660
    122 C42        10.6120    0.0980    1.3750 ca        1 MOL     -0.107104
    123 C43        10.8660   -0.7040   -0.9360 ca        1 MOL     -0.107104
    124 C44        11.3960   -0.5400    0.3680 ca        1 MOL     -0.116652
    125 H51         5.0300    1.3540   -1.2180 hn        1 MOL      0.263518
    126 H52         6.4040   -0.4340    0.5660 h1        1 MOL      0.072595
    127 H53         7.1700    1.7890   -0.0790 hc        1 MOL      0.089707
    128 H54         7.3770    1.2630   -1.6940 hc        1 MOL      0.089707
    129 H55         8.7810    1.0560    1.8170 ha        1 MOL      0.124663
    130 H56         9.1430   -0.3410   -2.2450 ha        1 MOL      0.124663
    131 H57        10.9840    0.3080    2.3630 ha        1 MOL      0.113598
    132 H58        11.3870   -1.2690   -1.7030 ha        1 MOL      0.113598
    133 H59        12.4080   -0.7650    0.6620 ha        1 MOL      0.103793
    134 N12         6.8590   -2.5740   -0.8830 n         1 MOL      0.056969
    135 C45         6.9960   -3.8370   -1.6070 c3        1 MOL     -0.264943
    136 C46         5.6650   -4.5500   -1.8330 c         1 MOL      0.611704
    137 O20         5.6950   -5.7210   -2.2630 o         1 MOL     -0.542364
    138 C47         7.8750   -4.6550   -0.7630 c3        1 MOL      0.100798
    139 C48         7.4230   -4.2500    0.6730 c3        1 MOL     -0.025138
    140 C49         7.3010   -2.7510    0.5210 c3        1 MOL     -0.119214
    141 H60         7.4210   -3.6450   -2.5870 h1        1 MOL      0.110684
    142 H61         7.8840   -5.7280   -0.9310 hc        1 MOL      0.005730
    143 H62         8.9030   -4.2980   -0.7260 hc        1 MOL      0.005730
    144 H63         6.4880   -4.7280    0.9580 hc        1 MOL      0.023630
    145 H64         8.2740   -4.3710    1.3440 hc        1 MOL      0.023630
    146 H65         6.5840   -2.3050    1.2070 h1        1 MOL      0.068567
    147 H66         8.2620   -2.2710    0.6910 h1        1 MOL      0.068567
    148 N13         4.5010   -3.8930   -1.6070 n         1 MOL     -0.473577
    149 C50         3.2210   -4.4380   -2.0330 c3        1 MOL     -0.018183
    150 C51         2.5780   -3.7080   -3.1800 c         1 MOL      0.333994
    151 O21         1.4490   -3.9820   -3.6220 o         1 MOL     -0.506079
    152 C52         2.2820   -4.4760   -0.8500 c3        1 MOL      0.074185
    153 C53         2.7560   -5.2750    0.3970 c3        1 MOL     -0.225462
    154 C54         1.8280   -5.0780    1.5780 c         1 MOL      0.688611
    155 O22         0.9800   -5.9870    1.8720 o         1 MOL     -0.723468
    156 O23         1.8350   -4.0390    2.3030 o         1 MOL     -0.723468
    157 H67         4.5360   -2.9070   -1.3970 hn        1 MOL      0.305962
    158 H68         3.4090   -5.4310   -2.4190 h1        1 MOL      0.108078
    159 H69         1.3070   -4.8540   -1.1590 hc        1 MOL      0.044466
    160 H70         2.1070   -3.4260   -0.6510 hc        1 MOL      0.044466
    161 H71         3.7520   -5.0150    0.7580 hc        1 MOL      0.062620
    162 H72         2.8480   -6.3250    0.1230 hc        1 MOL      0.062620
    163 N14         3.1500   -2.6360   -3.6950 n         1 MOL     -0.049092
    164 C55         2.7140   -1.9350   -4.9410 c3        1 MOL     -0.317793
    165 H73         2.4050   -2.6730   -5.6830 h1        1 MOL      0.121975
    166 H74         1.8760   -1.2760   -4.7130 h1        1 MOL      0.121975
    167 H75         3.5420   -1.3480   -5.3370 h1        1 MOL      0.121975
    168 H76         4.0220   -2.3120   -3.3190 hn        1 MOL      0.109417
    169 Ca1         0.2750   -2.3830    3.2190 Ca        1 MOL      1.750430
    170 O24        -0.0480   -0.4620    4.9670 oh        1 MOL     -0.823126
    171 H77         0.4800   -0.0420    5.6430 ho        1 MOL      0.406704
    172 H78        -0.9580   -0.3300    5.2530 ho        1 MOL      0.406704
    173 O25        -1.1430   -4.3770    1.7620 oh        1 MOL     -0.823126
    174 H79        -0.4550   -5.0290    1.7920 ho        1 MOL      0.406704
    175 H80        -1.5430   -4.4750    0.9000 ho        1 MOL      0.406704
    176 O26         0.2060   -4.0280    5.3700 oh        1 MOL     -0.823126
    177 H81        -0.0350   -4.9290    5.1490 ho        1 MOL      0.406704
    178 H82         0.6650   -4.0950    6.2080 ho        1 MOL      0.406704
    179 O27         2.8550   -2.1640    4.3300 oh        1 MOL     -0.823126
    180 H83         3.4500   -2.5700    3.7040 ho        1 MOL      0.406704
    181 H84         3.1780   -1.2680    4.4290 ho        1 MOL      0.406704
@<TRIPOS>BOND
     1    1    2 1   
     2    1    4 1   
     3    1    5 1   
     4    1    6 1   
     5    2    3 2   
     6    2    7 1   
     7    7    8 1   
     8    7   15 1   
     9    8    9 1   
    10    8   11 1   
    11    8   16 1   
    12    9   10 2   
    13    9   19 1   
    14   11   12 1   
    15   11   17 1   
    16   11   18 1   
    17   12   13 1   
    18   12   14 1   
    19   19   20 1   
    20   19   24 1   
    21   20   21 1   
    22   20   23 1   
    23   20   25 1   
    24   21   22 2   
    25   21   29 1   
    26   23   26 1   
    27   23   27 1   
    28   23   28 1   
    29   29   30 1   
    30   29   37 1   
    31   30   31 1   
    32   30   33 1   
    33   30   38 1   
    34   31   32 2   
    35   31   41 1   
    36   33   34 1   
    37   33   39 1   
    38   33   40 1   
    39   34   35 1   
    40   34   36 1   
    41   41   42 1   
    42   41   45 1   
    43   42   43 1   
    44   42   46 1   
    45   42   47 1   
    46   43   44 2   
    47   43   48 1   
    48   48   49 1   
    49   48   56 1   
    50   49   50 1   
    51   49   52 1   
    52   49   57 1   
    53   50   51 2   
    54   50   62 1   
    55   52   53 1   
    56   52   58 1   
    57   52   59 1   
    58   53   54 1   
    59   53   55 2   
    60   54   60 1   
    61   54   61 1   
    62   62   63 1   
    63   62   66 1   
    64   63   64 1   
    65   63   67 1   
    66   63   68 1   
    67   64   65 2   
    68   64   69 1   
    69   69   70 1   
    70   69   76 1   
    71   70   71 1   
    72   70   73 1   
    73   70   77 1   
    74   71   72 2   
    75   71   83 1   
    76   73   74 1   
    77   73   75 1   
    78   73   78 1   
    79   74   80 1   
    80   74   81 1   
    81   74   82 1   
    82   75   79 1   
    83   83   84 1   
    84   83   91 1   
    85   84   85 1   
    86   84   87 1   
    87   84   92 1   
    88   85   86 2   
    89   85  102 1   
    90   87   88 1   
    91   87   89 1   
    92   87   93 1   
    93   88   90 1   
    94   88   94 1   
    95   88   95 1   
    96   89   96 1   
    97   89   97 1   
    98   89   98 1   
    99   90   99 1   
   100   90  100 1   
   101   90  101 1   
   102  102  103 1   
   103  102  110 1   
   104  103  104 1   
   105  103  106 1   
   106  103  111 1   
   107  104  105 2   
   108  104  114 1   
   109  106  107 1   
   110  106  112 1   
   111  106  113 1   
   112  107  108 1   
   113  107  109 1   
   114  114  115 1   
   115  114  125 1   
   116  115  116 1   
   117  115  118 1   
   118  115  126 1   
   119  116  117 2   
   120  116  134 1   
   121  118  119 1   
   122  118  127 1   
   123  118  128 1   
   124  119  120 ar  
   125  119  121 ar  
   126  120  122 ar  
   127  120  129 1   
   128  121  123 ar  
   129  121  130 1   
   130  122  124 ar  
   131  122  131 1   
   132  123  124 ar  
   133  123  132 1   
   134  124  133 1   
   135  134  135 1   
   136  134  140 1   
   137  135  136 1   
   138  135  138 1   
   139  135  141 1   
   140  136  137 2   
   141  136  148 1   
   142  138  139 1   
   143  138  142 1   
   144  138  143 1   
   145  139  140 1   
   146  139  144 1   
   147  139  145 1   
   148  140  146 1   
   149  140  147 1   
   150  148  149 1   
   151  148  157 1   
   152  149  150 1   
   153  149  152 1   
   154  149  158 1   
   155  150  151 2   
   156  150  163 1   
   157  152  153 1   
   158  152  159 1   
   159  152  160 1   
   160  153  154 1   
   161  153  161 1   
   162  153  162 1   
   163  154  155 1   
   164  154  156 1   
   165  163  164 1   
   166  163  168 1   
   167  164  165 1   
   168  164  166 1   
   169  164  167 1   
   170  170  171 1   
   171  170  172 1   
   172  173  174 1   
   173  173  175 1   
   174  176  177 1   
   175  176  178 1   
   176  179  180 1   
   177  179  181 1   
@<TRIPOS>SUBSTRUCTURE
     1 MOL         1 TEMP              0 ****  ****    0 ROOT
