@<TRIPOS>MOLECULE
MOL
  192   187     1     0     0
SMALL
resp


@<TRIPOS>ATOM
      1 C1         -9.5430    0.7430   -1.9210 c3        1 MOL     -0.440529
      2 C2         -8.2990    0.5340   -1.0720 c         1 MOL      0.700048
      3 O1         -7.1830    0.3120   -1.6110 o         1 MOL     -0.701361
      4 H1         -9.9340   -0.2250   -2.2370 hc        1 MOL      0.118254
      5 H2        -10.3000    1.2670   -1.3360 hc        1 MOL      0.118254
      6 H3         -9.2890    1.3360   -2.8000 hc        1 MOL      0.118254
      7 N1         -8.4230    0.4710    0.2290 n         1 MOL     -0.413069
      8 C3         -7.4280    0.2370    1.2740 c3        1 MOL      0.027293
      9 C4         -6.9570   -1.1990    1.3830 c         1 MOL      0.672349
     10 O2         -6.8970   -1.7670    2.4810 o         1 MOL     -0.457689
     11 C5         -7.9760    0.6430    2.6380 c3        1 MOL     -0.273987
     12 C6         -9.4030    0.1200    2.8600 c         1 MOL      0.760150
     13 O3        -10.4400    0.7670    2.4060 o         1 MOL     -0.642087
     14 O4         -9.6670   -0.9180    3.5110 o         1 MOL     -0.642087
     15 H4         -9.3660    0.4380    0.5840 hn        1 MOL      0.180686
     16 H5         -6.5920    0.8970    1.0510 h1        1 MOL      0.117833
     17 H6         -8.0590    1.7290    2.7260 hc        1 MOL      0.070506
     18 H7         -7.3380    0.2810    3.4390 hc        1 MOL      0.070506
     19 N2         -6.7250   -1.8350    0.2300 n         1 MOL     -0.740496
     20 C7         -6.3450   -3.2480    0.1550 c3        1 MOL      0.199875
     21 C8         -4.9440   -3.5140    0.7250 c         1 MOL      0.420036
     22 O5         -4.7770   -4.4960    1.4390 o         1 MOL     -0.530292
     23 C9         -6.5790   -3.8400   -1.2400 c3        1 MOL     -0.003732
     24 C10        -8.0480   -3.8310   -1.7020 c3        1 MOL      0.032594
     25 C11        -8.2980   -4.6040   -2.9720 c3        1 MOL     -0.049739
     26 C12        -9.8130   -4.9180   -3.1190 c3        1 MOL      0.095458
     27 N3         -9.9810   -5.6570   -4.3730 n4        1 MOL     -0.290312
     28 H8         -6.7050   -1.3190   -0.6360 hn        1 MOL      0.408938
     29 H9         -6.9480   -3.9350    0.7480 h1        1 MOL      0.068120
     30 H10        -6.2230   -4.8650   -1.1310 hc        1 MOL      0.005493
     31 H11        -5.9630   -3.3260   -1.9750 hc        1 MOL      0.005493
     32 H12        -8.3740   -2.8030   -1.8770 hc        1 MOL      0.013304
     33 H13        -8.6640   -4.3450   -0.9670 hc        1 MOL      0.013304
     34 H14        -7.7940   -5.5680   -2.9550 hc        1 MOL      0.022759
     35 H15        -7.9550   -4.0000   -3.8170 hc        1 MOL      0.022759
     36 H16       -10.4770   -4.0630   -2.9440 hx        1 MOL      0.070877
     37 H17       -10.0080   -5.5950   -2.2880 hx        1 MOL      0.070877
     38 H18        -9.6370   -6.6030   -4.3660 hn        1 MOL      0.251720
     39 H19       -10.9300   -5.6130   -4.7250 hn        1 MOL      0.251720
     40 H20        -9.4700   -5.1500   -5.0780 hn        1 MOL      0.251720
     41 N4         -3.9010   -2.6980    0.5000 n         1 MOL     -0.484409
     42 C13        -3.7800   -1.5840   -0.4660 c3        1 MOL      0.316006
     43 C14        -4.1140   -0.2700    0.2220 c         1 MOL      0.202216
     44 O6         -4.1860   -0.1810    1.4340 o         1 MOL     -0.413284
     45 C15        -2.3990   -1.6350   -1.2180 c3        1 MOL     -0.322998
     46 C16        -1.2030   -1.9890   -0.3360 c         1 MOL      0.525847
     47 O7         -0.8600   -1.1760    0.5270 o         1 MOL     -0.570069
     48 O8         -0.6660   -3.0520   -0.5160 o         1 MOL     -0.570069
     49 H21        -3.0870   -2.8920    1.0560 hn        1 MOL      0.391573
     50 H22        -4.4950   -1.6950   -1.2770 h1        1 MOL      0.029694
     51 H23        -2.2380   -0.6340   -1.6230 hc        1 MOL      0.060792
     52 H24        -2.5030   -2.3740   -2.0130 hc        1 MOL      0.060792
     53 N5         -4.1670    0.8200   -0.5340 n         1 MOL     -0.308271
     54 C17        -4.2670    2.2200   -0.0080 c3        1 MOL     -0.050573
     55 C18        -2.9660    2.6910    0.5880 c         1 MOL      0.614535
     56 O9         -1.9690    2.0000    0.7600 o         1 MOL     -0.536607
     57 H25        -4.0120    0.7610   -1.5270 hn        1 MOL      0.282714
     58 H26        -5.0750    2.2510    0.7350 h1        1 MOL      0.073254
     59 H27        -4.5100    2.8870   -0.8380 h1        1 MOL      0.073254
     60 N6         -3.0500    3.9160    1.1100 n         1 MOL     -0.530197
     61 C19        -1.9270    4.7570    1.4850 c3        1 MOL      0.147028
     62 C20        -2.2370    6.2870    1.2560 c         1 MOL      0.387525
     63 O10        -3.4020    6.6410    1.0860 o         1 MOL     -0.516935
     64 C21        -1.6000    4.6380    2.9680 c3        1 MOL      0.091147
     65 C22        -0.5640    3.6780    3.4060 c         1 MOL      0.593280
     66 O11         0.3110    3.3690    2.5820 o         1 MOL     -0.703912
     67 O12        -0.6130    3.1270    4.5330 o         1 MOL     -0.703912
     68 H28        -3.8540    4.4890    0.9030 hn        1 MOL      0.270890
     69 H29        -1.0750    4.4660    0.8870 h1        1 MOL      0.084443
     70 H30        -2.4860    4.2200    3.4480 hc        1 MOL      0.007063
     71 H31        -1.5470    5.5320    3.5940 hc        1 MOL      0.007063
     72 N7         -1.2650    7.1910    1.3640 n         1 MOL     -0.371244
     73 C23         0.2120    7.1230    1.5170 c3        1 MOL     -0.096679
     74 C24         0.9240    6.4910    0.2710 c         1 MOL      0.590782
     75 O13         0.6050    6.8860   -0.8140 o         1 MOL     -0.530706
     76 H32        -1.6000    8.1380    1.3160 hn        1 MOL      0.300893
     77 H33         0.4870    6.5640    2.4190 h1        1 MOL      0.077889
     78 H34         0.5760    8.1380    1.6360 h1        1 MOL      0.077889
     79 N8          1.8440    5.5500    0.4770 n         1 MOL     -0.605840
     80 C25         2.6250    4.8570   -0.5390 c3        1 MOL      0.252138
     81 C26         1.8410    3.5940   -0.9640 c         1 MOL      0.765373
     82 O14         1.0670    2.9750   -0.2680 o         1 MOL     -0.656450
     83 C27         4.0880    4.5370   -0.1310 c3        1 MOL      0.474782
     84 C28         4.8640    5.8180    0.2000 c3        1 MOL     -0.411792
     85 O15         4.7770    3.7850   -1.0930 oh        1 MOL     -0.683862
     86 H35         1.9130    5.1650    1.4120 hn        1 MOL      0.291123
     87 H36         2.6400    5.4240   -1.4710 h1        1 MOL     -0.000626
     88 H37         3.8880    3.9020    0.7290 h1        1 MOL     -0.061992
     89 H38         5.2720    3.1030   -0.6380 ho        1 MOL      0.408519
     90 H39         4.5650    6.5240   -0.5770 hc        1 MOL      0.099307
     91 H40         4.6060    6.2140    1.1810 hc        1 MOL      0.099307
     92 H41         5.8970    5.4740    0.2500 hc        1 MOL      0.099307
     93 N9          1.9770    3.2520   -2.2580 n         1 MOL     -0.695176
     94 C29         1.3470    2.1290   -2.9770 c3        1 MOL     -0.002763
     95 C30         1.5490    0.7370   -2.4010 c         1 MOL      0.555798
     96 O16         1.4300    0.4630   -1.1790 o         1 MOL     -0.615167
     97 C31        -0.1390    2.4560   -3.3030 c3        1 MOL      0.215675
     98 C32        -0.3820    3.6760   -4.1970 c3        1 MOL     -0.027952
     99 C33        -0.9280    1.2700   -3.9600 c3        1 MOL     -0.330790
    100 C34         0.3250    3.3830   -5.5650 c3        1 MOL     -0.306641
    101 H42         2.4970    3.8640   -2.8670 hn        1 MOL      0.338813
    102 H43         1.8560    2.0140   -3.9290 h1        1 MOL      0.075763
    103 H44        -0.6580    2.6150   -2.3600 hc        1 MOL     -0.028344
    104 H45        -0.0990    4.5830   -3.6620 hc        1 MOL      0.054750
    105 H46        -1.4690    3.7740   -4.3020 hc        1 MOL      0.054750
    106 H47        -0.4350    0.9190   -4.8660 hc        1 MOL      0.078287
    107 H48        -0.9000    0.3770   -3.3450 hc        1 MOL      0.078287
    108 H49        -1.9630    1.5660   -4.1190 hc        1 MOL      0.078287
    109 H50         0.0200    2.6140   -6.2840 hc        1 MOL      0.072914
    110 H51         0.0740    4.3260   -6.0650 hc        1 MOL      0.072914
    111 H52         1.3890    3.2170   -5.4220 hc        1 MOL      0.072914
    112 N10         1.8740   -0.2730   -3.2280 n         1 MOL     -0.193521
    113 C35         2.1730   -1.6940   -2.8570 c3        1 MOL     -0.076601
    114 C36         3.6350   -2.0390   -2.9100 c         1 MOL      0.385489
    115 O17         4.0750   -3.1930   -2.7260 o         1 MOL     -0.536444
    116 C37         1.2660   -2.7460   -3.5360 c3        1 MOL      0.392191
    117 C38         1.4570   -2.7530   -5.0410 c3        1 MOL     -0.214066
    118 O18        -0.0860   -2.4520   -3.1670 oh        1 MOL     -0.612749
    119 H53         1.9940   -0.1340   -4.2200 hn        1 MOL      0.213316
    120 H54         1.7430   -1.7290   -1.8530 h1        1 MOL      0.121366
    121 H55         1.5650   -3.6970   -3.0920 h1        1 MOL      0.026111
    122 H56        -0.1740   -2.7950   -2.2700 ho        1 MOL      0.336090
    123 H57         2.3980   -3.2600   -5.2400 hc        1 MOL      0.047327
    124 H58         0.6970   -3.3480   -5.5450 hc        1 MOL      0.047327
    125 H59         1.5610   -1.7710   -5.5070 hc        1 MOL      0.047327
    126 N11         4.4670   -1.0990   -3.2830 n         1 MOL     -0.153406
    127 C39         5.9670   -1.0590   -3.2550 c3        1 MOL      0.013102
    128 C40         6.6470   -1.2500   -1.8970 c         1 MOL      0.472396
    129 O19         7.1980   -0.3230   -1.2880 o         1 MOL     -0.512215
    130 C41         6.6200   -0.0210   -4.1030 c3        1 MOL      0.288852
    131 C42         6.3070   -0.0170   -5.6130 c3        1 MOL     -0.360347
    132 O20         6.0980    1.1900   -3.6030 oh        1 MOL     -0.607892
    133 H60         4.0610   -0.2570   -3.6630 hn        1 MOL      0.112420
    134 H61         6.2690   -1.9790   -3.7470 h1        1 MOL      0.022465
    135 H62         7.6950   -0.0370   -3.9280 h1        1 MOL      0.031215
    136 H63         6.1220    1.8620   -4.2880 ho        1 MOL      0.397456
    137 H64         6.8000   -0.9000   -6.0170 hc        1 MOL      0.097031
    138 H65         5.2380    0.0400   -5.8160 hc        1 MOL      0.097031
    139 H66         6.7390    0.8630   -6.0870 hc        1 MOL      0.097031
    140 N12         6.4550   -2.4340   -1.3700 n         1 MOL     -0.434732
    141 C43         6.4750   -2.8220    0.1170 c3        1 MOL      0.148925
    142 C44         5.2520   -2.2310    0.8520 c         1 MOL      0.562943
    143 O21         4.7510   -1.1770    0.5560 o         1 MOL     -0.498167
    144 C45         7.8120   -2.4400    0.7990 c3        1 MOL     -0.252481
    145 C46         9.0960   -3.2990    0.3060 c3        1 MOL      0.051847
    146 C47        10.4910   -2.8260    0.6680 c3        1 MOL     -0.099656
    147 C48        10.6730   -1.2730    0.7820 c3        1 MOL      0.029956
    148 N13        12.0840   -1.1470    1.1530 n4        1 MOL     -0.200286
    149 H67         6.1210   -3.1350   -2.0150 hn        1 MOL      0.286753
    150 H68         6.3880   -3.9080    0.1970 h1        1 MOL      0.039388
    151 H69         7.7570   -2.7550    1.8390 hc        1 MOL      0.086262
    152 H70         7.9450   -1.3560    0.7860 hc        1 MOL      0.086262
    153 H71         9.0640   -3.3240   -0.7810 hc        1 MOL      0.017889
    154 H72         8.9630   -4.3010    0.7230 hc        1 MOL      0.017889
    155 H73        11.1870   -3.2600   -0.0470 hc        1 MOL      0.051569
    156 H74        10.8400   -3.3180    1.5710 hc        1 MOL      0.051569
    157 H75        10.0180   -0.8130    1.5120 hx        1 MOL      0.101476
    158 H76        10.4380   -0.7800   -0.1630 hx        1 MOL      0.101476
    159 H77        12.4230   -1.6220    1.9750 hn        1 MOL      0.209410
    160 H78        12.7510   -1.4940    0.4760 hn        1 MOL      0.209410
    161 H79        12.2740   -0.1650    1.2730 hn        1 MOL      0.209410
    162 N14         4.6470   -3.0160    1.7540 n         1 MOL     -0.639379
    163 C49         3.5660   -2.5400    2.6530 c3        1 MOL      0.317490
    164 C50         2.1600   -2.4320    2.0530 c         1 MOL      0.213696
    165 O22         1.5190   -1.3970    2.2110 o         1 MOL     -0.489851
    166 C51         3.4780   -3.4300    3.9730 c3        1 MOL     -0.023398
    167 C52         4.7690   -3.3440    4.8890 c3        1 MOL     -0.255945
    168 C53         4.6290   -4.1330    6.1990 c         1 MOL      0.730960
    169 O23         5.0580   -3.6750    7.2940 o         1 MOL     -0.641927
    170 O24         4.1910   -5.2970    6.2170 o         1 MOL     -0.641927
    171 H80         5.2210   -3.8160    1.9790 hn        1 MOL      0.346476
    172 H81         3.7520   -1.5410    3.0530 h1        1 MOL      0.030921
    173 H82         3.3120   -4.4770    3.7410 hc        1 MOL      0.048547
    174 H83         2.6590   -3.0160    4.5700 hc        1 MOL      0.048547
    175 H84         5.0290   -2.3030    5.0670 hc        1 MOL      0.020078
    176 H85         5.5990   -3.7920    4.3450 hc        1 MOL      0.020078
    177 N15         1.6880   -3.4220    1.2930 n         1 MOL     -0.111873
    178 C54         2.1460   -4.7900    1.1550 c3        1 MOL     -0.116728
    179 H86         2.0360   -5.1060    0.1180 h1        1 MOL      0.058725
    180 H87         3.1950   -4.8530    1.4450 h1        1 MOL      0.058725
    181 H88         1.5510   -5.4390    1.7970 h1        1 MOL      0.058725
    182 H89         0.9320   -3.0850    0.7140 hn        1 MOL      0.198337
    183 Ca1         0.4950    0.8840    1.3270 Ca        1 MOL      1.769709
    184 O25         1.6260    1.0910    3.7910 oh        1 MOL     -0.875523
    185 H90         2.4510    1.0570    4.2840 ho        1 MOL      0.421508
    186 H91         1.0710    1.6820    4.2960 ho        1 MOL      0.421508
    187 O26         3.1780    1.3200    1.1850 oh        1 MOL     -0.875523
    188 H92         3.5530    0.8030    0.4710 ho        1 MOL      0.421508
    189 H93         3.8960    1.4160    1.8170 ho        1 MOL      0.421508
    190 O27        -1.3150    0.3000    3.1090 oh        1 MOL     -0.875523
    191 H94        -1.5520    1.0680    3.6350 ho        1 MOL      0.421508
    192 H95        -1.9140   -0.3800    3.4070 ho        1 MOL      0.421508
@<TRIPOS>BOND
     1    1    2 1   
     2    1    4 1   
     3    1    5 1   
     4    1    6 1   
     5    2    3 2   
     6    2    7 1   
     7    7    8 1   
     8    7   15 1   
     9    8    9 1   
    10    8   11 1   
    11    8   16 1   
    12    9   10 2   
    13    9   19 1   
    14   11   12 1   
    15   11   17 1   
    16   11   18 1   
    17   12   13 1   
    18   12   14 1   
    19   19   20 1   
    20   19   28 1   
    21   20   21 1   
    22   20   23 1   
    23   20   29 1   
    24   21   22 2   
    25   21   41 1   
    26   23   24 1   
    27   23   30 1   
    28   23   31 1   
    29   24   25 1   
    30   24   32 1   
    31   24   33 1   
    32   25   26 1   
    33   25   34 1   
    34   25   35 1   
    35   26   27 1   
    36   26   36 1   
    37   26   37 1   
    38   27   38 1   
    39   27   39 1   
    40   27   40 1   
    41   41   42 1   
    42   41   49 1   
    43   42   43 1   
    44   42   45 1   
    45   42   50 1   
    46   43   44 2   
    47   43   53 1   
    48   45   46 1   
    49   45   51 1   
    50   45   52 1   
    51   46   47 1   
    52   46   48 1   
    53   53   54 1   
    54   53   57 1   
    55   54   55 1   
    56   54   58 1   
    57   54   59 1   
    58   55   56 2   
    59   55   60 1   
    60   60   61 1   
    61   60   68 1   
    62   61   62 1   
    63   61   64 1   
    64   61   69 1   
    65   62   63 2   
    66   62   72 1   
    67   64   65 1   
    68   64   70 1   
    69   64   71 1   
    70   65   66 1   
    71   65   67 1   
    72   72   73 1   
    73   72   76 1   
    74   73   74 1   
    75   73   77 1   
    76   73   78 1   
    77   74   75 2   
    78   74   79 1   
    79   79   80 1   
    80   79   86 1   
    81   80   81 1   
    82   80   83 1   
    83   80   87 1   
    84   81   82 2   
    85   81   93 1   
    86   83   84 1   
    87   83   85 1   
    88   83   88 1   
    89   84   90 1   
    90   84   91 1   
    91   84   92 1   
    92   85   89 1   
    93   93   94 1   
    94   93  101 1   
    95   94   95 1   
    96   94   97 1   
    97   94  102 1   
    98   95   96 2   
    99   95  112 1   
   100   97   98 1   
   101   97   99 1   
   102   97  103 1   
   103   98  100 1   
   104   98  104 1   
   105   98  105 1   
   106   99  106 1   
   107   99  107 1   
   108   99  108 1   
   109  100  109 1   
   110  100  110 1   
   111  100  111 1   
   112  112  113 1   
   113  112  119 1   
   114  113  114 1   
   115  113  116 1   
   116  113  120 1   
   117  114  115 2   
   118  114  126 1   
   119  116  117 1   
   120  116  118 1   
   121  116  121 1   
   122  117  123 1   
   123  117  124 1   
   124  117  125 1   
   125  118  122 1   
   126  126  127 1   
   127  126  133 1   
   128  127  128 1   
   129  127  130 1   
   130  127  134 1   
   131  128  129 2   
   132  128  140 1   
   133  130  131 1   
   134  130  132 1   
   135  130  135 1   
   136  131  137 1   
   137  131  138 1   
   138  131  139 1   
   139  132  136 1   
   140  140  141 1   
   141  140  149 1   
   142  141  142 1   
   143  141  144 1   
   144  141  150 1   
   145  142  143 2   
   146  142  162 1   
   147  144  145 1   
   148  144  151 1   
   149  144  152 1   
   150  145  146 1   
   151  145  153 1   
   152  145  154 1   
   153  146  147 1   
   154  146  155 1   
   155  146  156 1   
   156  147  148 1   
   157  147  157 1   
   158  147  158 1   
   159  148  159 1   
   160  148  160 1   
   161  148  161 1   
   162  162  163 1   
   163  162  171 1   
   164  163  164 1   
   165  163  166 1   
   166  163  172 1   
   167  164  165 2   
   168  164  177 1   
   169  166  167 1   
   170  166  173 1   
   171  166  174 1   
   172  167  168 1   
   173  167  175 1   
   174  167  176 1   
   175  168  169 1   
   176  168  170 1   
   177  177  178 1   
   178  177  182 1   
   179  178  179 1   
   180  178  180 1   
   181  178  181 1   
   182  184  185 1   
   183  184  186 1   
   184  187  188 1   
   185  187  189 1   
   186  190  191 1   
   187  190  192 1   
@<TRIPOS>SUBSTRUCTURE
     1 MOL         1 TEMP              0 ****  ****    0 ROOT
