@<TRIPOS>MOLECULE
MOL
  189   185     1     0     0
SMALL
resp


@<TRIPOS>ATOM
      1 C1         11.4040    5.9010   -2.0640 c3        1 MOL     -0.189020
      2 C2         11.3160    4.4200   -1.6390 c         1 MOL      0.513323
      3 O1         11.7680    3.4720   -2.2690 o         1 MOL     -0.545604
      4 H1         10.3990    6.2970   -2.2090 hc        1 MOL      0.045692
      5 H2         11.9100    6.4720   -1.2860 hc        1 MOL      0.045692
      6 H3         11.9640    5.9790   -2.9960 hc        1 MOL      0.045692
      7 N1         10.5890    4.2180   -0.5650 n         1 MOL      0.023352
      8 C3         10.1320    2.9510    0.0270 c3        1 MOL     -0.826741
      9 C4          9.0620    2.1880   -0.8220 c         1 MOL      0.700104
     10 O2          8.1680    2.8520   -1.4030 o         1 MOL     -0.542922
     11 C5          9.7520    3.0160    1.5160 c3        1 MOL      0.271416
     12 C6          8.6550    3.8490    1.9320 c         1 MOL      0.527060
     13 O3          8.6540    4.0580    3.1710 o         1 MOL     -0.666922
     14 O4          7.7310    4.2440    1.1330 o         1 MOL     -0.666922
     15 H4         10.2720    5.0740   -0.1400 hn        1 MOL      0.122014
     16 H5         10.9570    2.2320    0.0120 h1        1 MOL      0.204203
     17 H6         10.6090    3.3300    2.1060 hc        1 MOL      0.033169
     18 H7          9.3960    2.0310    1.8470 hc        1 MOL      0.033169
     19 N2          9.1100    0.8630   -0.9000 n         1 MOL     -0.404171
     20 C7          8.0680   -0.0090   -1.4660 c3        1 MOL     -0.049502
     21 C8          7.1220   -0.4020   -0.3440 c         1 MOL      0.626747
     22 O5          7.1600   -1.5650    0.1170 o         1 MOL     -0.561619
     23 C9          8.7070   -1.0900   -2.3330 c3        1 MOL      0.015109
     24 C10         7.7300   -1.9880   -3.0880 c3        1 MOL      0.015529
     25 C11         8.4280   -3.2190   -3.6440 c3        1 MOL     -0.161016
     26 C12         7.2510   -4.0810   -4.2010 c3        1 MOL      0.269195
     27 N3          7.8790   -5.3550   -4.6690 n4        1 MOL     -0.396441
     28 H8          9.8360    0.3810   -0.4010 hn        1 MOL      0.292065
     29 H9          7.4380    0.5150   -2.1850 h1        1 MOL      0.071049
     30 H10         9.2890   -1.7310   -1.6670 hc        1 MOL      0.025622
     31 H11         9.4980   -0.7200   -2.9900 hc        1 MOL      0.025622
     32 H12         7.2620   -1.3630   -3.8530 hc        1 MOL      0.028935
     33 H13         6.9400   -2.3580   -2.4300 hc        1 MOL      0.028935
     34 H14         8.8960   -3.6980   -2.7870 hc        1 MOL      0.059156
     35 H15         9.1340   -2.9000   -4.4140 hc        1 MOL      0.059156
     36 H16         6.8200   -3.5860   -5.0810 hx        1 MOL      0.016739
     37 H17         6.4030   -4.2200   -3.5430 hx        1 MOL      0.016739
     38 H18         8.7400   -5.2440   -5.1890 hn        1 MOL      0.327059
     39 H19         8.1060   -5.9090   -3.8550 hn        1 MOL      0.327059
     40 H20         7.2140   -5.9090   -5.1820 hn        1 MOL      0.327059
     41 N4          6.2270    0.5060   -0.0170 n         1 MOL     -0.717038
     42 C13         5.1340    0.3350    0.9990 c3        1 MOL      0.465922
     43 C14         3.7470   -0.0240    0.4440 c         1 MOL      0.511756
     44 O6          3.5220    0.0440   -0.7640 o         1 MOL     -0.574304
     45 C15         5.1560    1.5250    1.9910 c3        1 MOL      0.127940
     46 C16         5.1400    2.8610    1.4080 c         1 MOL      0.777799
     47 O7          4.9210    3.0200    0.2110 o         1 MOL     -0.846545
     48 O8          5.0090    3.8230    2.1710 o         1 MOL     -0.846545
     49 H21         6.3020    1.4560   -0.3740 hn        1 MOL      0.372785
     50 H22         5.4130   -0.4650    1.6830 h1        1 MOL     -0.067849
     51 H23         6.1010    1.4110    2.5310 hc        1 MOL     -0.004039
     52 H24         4.4220    1.3360    2.7670 hc        1 MOL     -0.004039
     53 N5          2.8410   -0.6630    1.1710 n         1 MOL     -0.617037
     54 C17         2.9660   -1.2130    2.4770 c3        1 MOL      0.128837
     55 C18         3.1440   -2.7230    2.5900 c         1 MOL      0.649381
     56 O9          3.5890   -3.3960    1.6170 o         1 MOL     -0.558630
     57 H25         1.9490   -0.7240    0.7110 hn        1 MOL      0.344241
     58 H26         2.0910   -0.8940    3.0540 h1        1 MOL      0.021159
     59 H27         3.7780   -0.7640    3.0610 h1        1 MOL      0.021159
     60 N6          2.8500   -3.2150    3.7820 n         1 MOL     -0.612330
     61 C19         2.8450   -4.6330    4.0130 c3        1 MOL      0.280454
     62 C20         1.7740   -5.2900    3.1420 c         1 MOL      0.515771
     63 O10         0.5860   -4.9740    3.1850 o         1 MOL     -0.533965
     64 C21         2.6380   -4.9930    5.5290 c3        1 MOL     -0.332471
     65 C22         2.6520   -6.5120    5.7940 c         1 MOL      0.716101
     66 O11         2.1620   -6.9360    6.8800 o         1 MOL     -0.717325
     67 O12         3.0830   -7.2990    4.9590 o         1 MOL     -0.717325
     68 H28         2.8070   -2.5410    4.5350 hn        1 MOL      0.319730
     69 H29         3.8280   -5.0100    3.7400 h1        1 MOL      0.000542
     70 H30         1.7330   -4.5580    5.9590 hc        1 MOL      0.074725
     71 H31         3.4240   -4.5400    6.1300 hc        1 MOL      0.074725
     72 N7          2.1450   -6.2790    2.3000 n         1 MOL     -0.220862
     73 C23         1.3050   -6.9050    1.3020 c3        1 MOL     -0.041809
     74 C24         0.8250   -5.9600    0.1850 c         1 MOL      0.416661
     75 O13         0.1680   -6.4060   -0.7730 o         1 MOL     -0.567261
     76 H32         3.1370   -6.4880    2.3640 hn        1 MOL      0.197649
     77 H33         0.4520   -7.4210    1.7320 h1        1 MOL      0.084112
     78 H34         1.7890   -7.7750    0.8440 h1        1 MOL      0.084112
     79 N8          1.0990   -4.6400    0.2720 n         1 MOL     -0.063025
     80 C25         0.8590   -3.6040   -0.7790 c3        1 MOL      0.014848
     81 C26         0.1900   -2.3070   -0.3320 c         1 MOL      0.423551
     82 O14         0.1570   -1.9870    0.8100 o         1 MOL     -0.443616
     83 C27         2.1050   -3.2090   -1.5160 c3        1 MOL      0.509436
     84 C28         3.1590   -4.3090   -1.7550 c3        1 MOL     -0.697122
     85 O15         1.7500   -2.5740   -2.7150 oh        1 MOL     -0.640221
     86 H35         1.7070   -4.4000    1.0430 hn        1 MOL     -0.065869
     87 H36         0.1970   -3.9850   -1.5560 h1        1 MOL      0.033943
     88 H37         2.6520   -2.4950   -0.8920 h1        1 MOL      0.002379
     89 H38         2.6000   -2.3000   -3.0900 ho        1 MOL      0.374563
     90 H39         3.6640   -4.4770   -0.8050 hc        1 MOL      0.172539
     91 H40         2.5800   -5.1440   -2.1410 hc        1 MOL      0.172539
     92 H41         3.8340   -3.8830   -2.4940 hc        1 MOL      0.172539
     93 N9         -0.5540   -1.6340   -1.2280 n         1 MOL     -0.248602
     94 C29        -1.4250   -0.4580   -0.9400 c3        1 MOL     -0.385970
     95 C30        -2.8410   -0.7430   -0.5720 c         1 MOL      0.796389
     96 O16        -3.5560    0.0530    0.0290 o         1 MOL     -0.571145
     97 C31        -1.4400    0.5140   -2.1810 c3        1 MOL     -0.040716
     98 C32         0.0950    0.8940   -2.2470 c3        1 MOL      0.146110
     99 C33        -2.2930    1.7760   -2.0630 c3        1 MOL     -0.173985
    100 C34         0.4930    1.5700   -3.5620 c3        1 MOL     -0.316858
    101 H42        -0.3090   -1.7950   -2.1920 hn        1 MOL      0.231517
    102 H43        -1.0280    0.1020   -0.0910 h1        1 MOL      0.150992
    103 H44        -1.6610    0.0590   -3.1420 hc        1 MOL      0.079002
    104 H45         0.7620    0.0430   -2.1340 hc        1 MOL      0.033091
    105 H46         0.3300    1.6240   -1.4740 hc        1 MOL      0.033091
    106 H47        -2.1890    2.2150   -1.0770 hc        1 MOL      0.060132
    107 H48        -2.0220    2.5250   -2.8110 hc        1 MOL      0.060132
    108 H49        -3.3500    1.5190   -2.0660 hc        1 MOL      0.060132
    109 H50         0.1830    2.6090   -3.6160 hc        1 MOL      0.069957
    110 H51         1.5770    1.5560   -3.6840 hc        1 MOL      0.069957
    111 H52        -0.0280    1.0440   -4.3580 hc        1 MOL      0.069957
    112 N10        -3.4630   -1.7960   -1.1400 n         1 MOL     -0.526954
    113 C35        -4.8290   -2.2390   -0.8490 c3        1 MOL     -0.005758
    114 C36        -5.8470   -1.9480   -2.0170 c         1 MOL      0.651772
    115 O17        -5.4700   -1.9720   -3.2060 o         1 MOL     -0.554462
    116 C37        -4.8830   -3.6860   -0.3370 c3        1 MOL      0.369782
    117 C38        -3.8680   -4.0350    0.7950 c3        1 MOL     -0.319853
    118 O18        -6.2270   -4.1160   -0.1180 oh        1 MOL     -0.735937
    119 H53        -2.9690   -2.4360   -1.7490 hn        1 MOL      0.251738
    120 H54        -5.1410   -1.6600    0.0190 h1        1 MOL      0.092596
    121 H55        -4.6260   -4.3280   -1.1790 h1        1 MOL     -0.002528
    122 H56        -6.2780   -4.9230    0.3990 ho        1 MOL      0.438275
    123 H57        -2.9580   -4.2400    0.2370 hc        1 MOL      0.104330
    124 H58        -3.6280   -3.2360    1.4920 hc        1 MOL      0.104330
    125 H59        -4.2160   -4.9440    1.2790 hc        1 MOL      0.104330
    126 N11        -7.1080   -1.7870   -1.7140 n         1 MOL     -0.574443
    127 C39        -8.0890   -1.3990   -2.7090 c3        1 MOL      0.028883
    128 C40        -8.7750   -0.0320   -2.3940 c         1 MOL      0.633665
    129 O19        -8.8180    0.8430   -3.2430 o         1 MOL     -0.571566
    130 C41        -9.1280   -2.5240   -2.9490 c3        1 MOL      0.305707
    131 C42       -10.0120   -2.1070   -4.1360 c3        1 MOL     -0.323572
    132 O20       -10.0330   -2.7590   -1.9460 oh        1 MOL     -0.635654
    133 H60        -7.3870   -1.7530   -0.7420 hn        1 MOL      0.309695
    134 H61        -7.5360   -1.4400   -3.6460 h1        1 MOL      0.107685
    135 H62        -8.5960   -3.4060   -3.3060 h1        1 MOL      0.042798
    136 H63        -9.5280   -3.3130   -1.3470 ho        1 MOL      0.390945
    137 H64        -9.3310   -1.9610   -4.9760 hc        1 MOL      0.080210
    138 H65       -10.7100   -2.8960   -4.4030 hc        1 MOL      0.080210
    139 H66       -10.6710   -1.2760   -3.8870 hc        1 MOL      0.080210
    140 N12        -9.0730    0.2080   -1.0840 n         1 MOL     -0.450935
    141 C43        -9.4900    1.5280   -0.5310 c3        1 MOL      0.022671
    142 C44        -8.7450    1.9200    0.7400 c         1 MOL      0.536155
    143 O21        -8.3980    1.0670    1.5820 o         1 MOL     -0.529946
    144 C45       -10.9920    1.5430   -0.2660 c3        1 MOL     -0.223851
    145 C46       -11.8470    1.1020   -1.5180 c3        1 MOL      0.036892
    146 C47       -13.2680    1.3250   -1.1550 c3        1 MOL     -0.016005
    147 C48       -13.7570    0.3560   -0.0910 c3        1 MOL     -0.101765
    148 N13       -13.5930   -1.0530   -0.4140 n4        1 MOL     -0.185296
    149 H67        -8.9250   -0.6030   -0.4890 hn        1 MOL      0.240994
    150 H68        -9.2310    2.3260   -1.2280 h1        1 MOL      0.150269
    151 H69       -11.2620    2.5550    0.0310 hc        1 MOL      0.095170
    152 H70       -11.2940    0.9730    0.6090 hc        1 MOL      0.095170
    153 H71       -11.7190    0.0460   -1.7700 hc        1 MOL      0.025029
    154 H72       -11.5860    1.6630   -2.4110 hc        1 MOL      0.025029
    155 H73       -13.9340    1.1260   -1.9860 hc        1 MOL      0.052306
    156 H74       -13.4440    2.3550   -0.8370 hc        1 MOL      0.052306
    157 H75       -14.8250    0.5620   -0.0610 hx        1 MOL      0.106869
    158 H76       -13.3390    0.4920    0.9090 hx        1 MOL      0.106869
    159 H77       -12.6670   -1.3910   -0.6340 hn        1 MOL      0.285530
    160 H78       -13.8490   -1.6050    0.3930 hn        1 MOL      0.285530
    161 H79       -14.1640   -1.3950   -1.1740 hn        1 MOL      0.285530
    162 N14        -8.4050    3.2150    0.8170 n         1 MOL     -0.621778
    163 C49        -7.5670    3.7500    1.8970 c3        1 MOL      0.504776
    164 C50        -6.0630    3.6090    1.7440 c         1 MOL      0.341458
    165 O22        -5.4180    3.1150    2.6380 o         1 MOL     -0.516367
    166 C51        -8.0280    5.1560    2.0290 c3        1 MOL     -0.016027
    167 C52        -7.5260    5.7750    3.3480 c3        1 MOL     -0.244072
    168 C53        -8.1040    7.2010    3.5520 c         1 MOL      0.699524
    169 O23        -9.3200    7.4340    3.4650 o         1 MOL     -0.719913
    170 O24        -7.2620    8.1560    3.6900 o         1 MOL     -0.719913
    171 H80        -8.6290    3.7290   -0.0170 hn        1 MOL      0.257461
    172 H81        -7.7120    3.2190    2.8390 h1        1 MOL     -0.011751
    173 H82        -9.1190    5.2110    2.0770 hc        1 MOL      0.004136
    174 H83        -7.6090    5.7530    1.2170 hc        1 MOL      0.004136
    175 H84        -6.4350    5.8200    3.2410 hc        1 MOL      0.027263
    176 H85        -7.7570    5.1210    4.1830 hc        1 MOL      0.027263
    177 N15        -5.3860    4.0510    0.6630 n         1 MOL     -0.282084
    178 C54        -5.7780    4.7930   -0.4960 c3        1 MOL     -0.017474
    179 H86        -6.7910    5.1720   -0.3590 h1        1 MOL      0.036433
    180 H87        -5.0940    5.6290   -0.6410 h1        1 MOL      0.036433
    181 H88        -5.7490    4.1430   -1.3710 h1        1 MOL      0.036433
    182 H89        -4.3950    3.9570    0.8060 hn        1 MOL      0.264365
    183 Ca1         5.8460    5.7200    0.3180 Ca        1 MOL      1.685387
    184 O25         3.5810    5.5060   -1.2100 oh        1 MOL     -0.795541
    185 H90         3.3450    5.7130   -0.3050 ho        1 MOL      0.403200
    186 H91         2.8710    4.9320   -1.5270 ho        1 MOL      0.403200
    187 O26         7.1840    5.4120   -2.0690 oh        1 MOL     -0.795541
    188 H92         7.3680    6.0970   -2.7010 ho        1 MOL      0.403200
    189 H93         7.5650    4.6190   -2.4490 ho        1 MOL      0.403200
@<TRIPOS>BOND
     1    1    2 1   
     2    1    4 1   
     3    1    5 1   
     4    1    6 1   
     5    2    3 2   
     6    2    7 1   
     7    7    8 1   
     8    7   15 1   
     9    8    9 1   
    10    8   11 1   
    11    8   16 1   
    12    9   10 2   
    13    9   19 1   
    14   11   12 1   
    15   11   17 1   
    16   11   18 1   
    17   12   13 1   
    18   12   14 1   
    19   19   20 1   
    20   19   28 1   
    21   20   21 1   
    22   20   23 1   
    23   20   29 1   
    24   21   22 2   
    25   21   41 1   
    26   23   24 1   
    27   23   30 1   
    28   23   31 1   
    29   24   25 1   
    30   24   32 1   
    31   24   33 1   
    32   25   26 1   
    33   25   34 1   
    34   25   35 1   
    35   26   27 1   
    36   26   36 1   
    37   26   37 1   
    38   27   38 1   
    39   27   39 1   
    40   27   40 1   
    41   41   42 1   
    42   41   49 1   
    43   42   43 1   
    44   42   45 1   
    45   42   50 1   
    46   43   44 2   
    47   43   53 1   
    48   45   46 1   
    49   45   51 1   
    50   45   52 1   
    51   46   47 1   
    52   46   48 1   
    53   53   54 1   
    54   53   57 1   
    55   54   55 1   
    56   54   58 1   
    57   54   59 1   
    58   55   56 2   
    59   55   60 1   
    60   60   61 1   
    61   60   68 1   
    62   61   62 1   
    63   61   64 1   
    64   61   69 1   
    65   62   63 2   
    66   62   72 1   
    67   64   65 1   
    68   64   70 1   
    69   64   71 1   
    70   65   66 1   
    71   65   67 1   
    72   72   73 1   
    73   72   76 1   
    74   73   74 1   
    75   73   77 1   
    76   73   78 1   
    77   74   75 2   
    78   74   79 1   
    79   79   80 1   
    80   79   86 1   
    81   80   81 1   
    82   80   83 1   
    83   80   87 1   
    84   81   82 2   
    85   81   93 1   
    86   83   84 1   
    87   83   85 1   
    88   83   88 1   
    89   84   90 1   
    90   84   91 1   
    91   84   92 1   
    92   85   89 1   
    93   93   94 1   
    94   93  101 1   
    95   94   95 1   
    96   94   97 1   
    97   94  102 1   
    98   95   96 2   
    99   95  112 1   
   100   97   98 1   
   101   97   99 1   
   102   97  103 1   
   103   98  100 1   
   104   98  104 1   
   105   98  105 1   
   106   99  106 1   
   107   99  107 1   
   108   99  108 1   
   109  100  109 1   
   110  100  110 1   
   111  100  111 1   
   112  112  113 1   
   113  112  119 1   
   114  113  114 1   
   115  113  116 1   
   116  113  120 1   
   117  114  115 2   
   118  114  126 1   
   119  116  117 1   
   120  116  118 1   
   121  116  121 1   
   122  117  123 1   
   123  117  124 1   
   124  117  125 1   
   125  118  122 1   
   126  126  127 1   
   127  126  133 1   
   128  127  128 1   
   129  127  130 1   
   130  127  134 1   
   131  128  129 2   
   132  128  140 1   
   133  130  131 1   
   134  130  132 1   
   135  130  135 1   
   136  131  137 1   
   137  131  138 1   
   138  131  139 1   
   139  132  136 1   
   140  140  141 1   
   141  140  149 1   
   142  141  142 1   
   143  141  144 1   
   144  141  150 1   
   145  142  143 2   
   146  142  162 1   
   147  144  145 1   
   148  144  151 1   
   149  144  152 1   
   150  145  146 1   
   151  145  153 1   
   152  145  154 1   
   153  146  147 1   
   154  146  155 1   
   155  146  156 1   
   156  147  148 1   
   157  147  157 1   
   158  147  158 1   
   159  148  159 1   
   160  148  160 1   
   161  148  161 1   
   162  162  163 1   
   163  162  171 1   
   164  163  164 1   
   165  163  166 1   
   166  163  172 1   
   167  164  165 2   
   168  164  177 1   
   169  166  167 1   
   170  166  173 1   
   171  166  174 1   
   172  167  168 1   
   173  167  175 1   
   174  167  176 1   
   175  168  169 1   
   176  168  170 1   
   177  177  178 1   
   178  177  182 1   
   179  178  179 1   
   180  178  180 1   
   181  178  181 1   
   182  184  185 1   
   183  184  186 1   
   184  187  188 1   
   185  187  189 1   
@<TRIPOS>SUBSTRUCTURE
     1 MOL         1 TEMP              0 ****  ****    0 ROOT
