@<TRIPOS>MOLECULE
MOL
  188   182     1     0     0
SMALL
resp


@<TRIPOS>ATOM
      1 C1         -5.4140    1.2900   -3.1280 c3        1 MOL     -0.237017
      2 C2         -6.4810    0.8760   -2.1800 c         1 MOL      0.633192
      3 O1         -6.1170    0.8130   -1.0040 o         1 MOL     -0.477157
      4 H1         -5.7130    2.2090   -3.6320 hc        1 MOL      0.058366
      5 H2         -4.4870    1.4620   -2.5800 hc        1 MOL      0.058366
      6 H3         -5.2590    0.5040   -3.8670 hc        1 MOL      0.058366
      7 N1         -7.6690    0.5400   -2.6460 n         1 MOL     -0.403326
      8 C3         -8.8780    0.2160   -1.8300 c3        1 MOL     -0.042990
      9 C4         -8.7010   -0.9190   -0.7480 c         1 MOL      0.463441
     10 O2         -9.3190   -0.8530    0.3520 o         1 MOL     -0.530284
     11 C5         -9.3930    1.5710   -1.1860 c3        1 MOL     -0.361676
     12 C6         -9.3290    2.7480   -2.0880 c         1 MOL      0.725415
     13 O3         -9.9660    2.8030   -3.1420 o         1 MOL     -0.674958
     14 O4         -8.4770    3.6680   -1.8860 o         1 MOL     -0.674958
     15 H4         -7.7790    0.3340   -3.6280 hn        1 MOL      0.290485
     16 H5         -9.5250   -0.2240   -2.5820 h1        1 MOL      0.031210
     17 H6         -8.8720    1.8340   -0.2630 hc        1 MOL      0.113127
     18 H7        -10.4130    1.4330   -0.8540 hc        1 MOL      0.113127
     19 N2         -7.9100   -1.8930   -1.0540 n         1 MOL      0.002129
     20 C7         -7.6400   -3.0020   -0.1680 c3        1 MOL      0.087289
     21 C8         -6.1990   -3.0290    0.4250 c         1 MOL      0.434815
     22 O5         -5.7510   -4.0460    1.0600 o         1 MOL     -0.571136
     23 C9         -7.9570   -4.3710   -0.8100 c3        1 MOL     -0.433819
     24 C10        -9.3260   -4.3070   -1.5680 c3        1 MOL      0.187327
     25 C11       -10.5040   -4.7420   -0.6650 c3        1 MOL     -0.024232
     26 C12       -11.8520   -4.4190   -1.3730 c3        1 MOL     -0.120725
     27 N3        -12.1070   -3.0150   -1.6980 n4        1 MOL     -0.450766
     28 H8         -7.6770   -2.0140   -2.0260 hn        1 MOL      0.124057
     29 H9         -8.3380   -2.9710    0.6710 h1        1 MOL      0.034343
     30 H10        -7.8770   -5.2400   -0.1510 hc        1 MOL      0.155540
     31 H11        -7.1970   -4.4590   -1.5820 hc        1 MOL      0.155540
     32 H12        -9.3670   -5.0390   -2.3760 hc        1 MOL     -0.058194
     33 H13        -9.4610   -3.2870   -1.9300 hc        1 MOL     -0.058194
     34 H14       -10.4770   -4.1030    0.2200 hc        1 MOL      0.068734
     35 H15       -10.3120   -5.7940   -0.4710 hc        1 MOL      0.068734
     36 H16       -12.5570   -4.7680   -0.6150 hx        1 MOL      0.120908
     37 H17       -11.9630   -5.1360   -2.1820 hx        1 MOL      0.120908
     38 H18       -11.3310   -2.6960   -2.2560 hn        1 MOL      0.330981
     39 H19       -12.9900   -2.9460   -2.1940 hn        1 MOL      0.330981
     40 H20       -12.2230   -2.5010   -0.8360 hn        1 MOL      0.330981
     41 N4         -5.4370   -2.0370    0.0360 n         1 MOL     -0.257495
     42 C13        -4.1210   -1.8120    0.5650 c3        1 MOL      0.093670
     43 C14        -4.1670   -1.2030    1.9640 c         1 MOL      0.546141
     44 O6         -4.7200   -0.0990    2.0120 o         1 MOL     -0.543857
     45 C15        -3.2560   -1.0630   -0.4490 c3        1 MOL     -0.238228
     46 C16        -1.8250   -0.9530    0.0810 c         1 MOL      0.705750
     47 O7         -1.5420   -0.1180    0.9800 o         1 MOL     -0.703672
     48 O8         -0.9500   -1.7650   -0.4050 o         1 MOL     -0.703672
     49 H21        -5.9350   -1.2680   -0.3840 hn        1 MOL      0.068452
     50 H22        -3.6530   -2.7830    0.6840 h1        1 MOL      0.066121
     51 H23        -3.7490   -0.1160   -0.6850 hc        1 MOL      0.053846
     52 H24        -3.2540   -1.6240   -1.3840 hc        1 MOL      0.053846
     53 N5         -3.5300   -1.6830    2.9600 n         1 MOL     -0.244524
     54 C17        -3.6920   -1.2060    4.3140 c3        1 MOL     -0.262301
     55 C18        -3.2130    0.2220    4.6800 c         1 MOL      0.645996
     56 O9         -3.3590    0.6660    5.8130 o         1 MOL     -0.588964
     57 H25        -2.9410   -2.4790    2.8020 hn        1 MOL      0.225123
     58 H26        -3.1180   -1.9070    4.9280 h1        1 MOL      0.121200
     59 H27        -4.7440   -1.2680    4.5820 h1        1 MOL      0.121200
     60 N6         -2.4370    0.9010    3.8060 n         1 MOL     -0.403891
     61 C19        -2.0250    2.3130    3.9810 c3        1 MOL      0.023058
     62 C20        -2.0510    3.2030    2.7530 c         1 MOL      0.465566
     63 O10        -1.8090    4.4020    2.9770 o         1 MOL     -0.557771
     64 C21        -0.6550    2.2860    4.7310 c3        1 MOL     -0.192914
     65 C22         0.5010    1.7370    3.9330 c         1 MOL      0.499436
     66 N7          1.6500    2.3240    4.1640 n         1 MOL     -0.675975
     67 O11         0.3720    0.7610    3.1530 o         1 MOL     -0.467041
     68 H28        -2.2490    0.3720    2.9720 hn        1 MOL      0.255275
     69 H29        -2.6870    2.7830    4.7040 h1        1 MOL      0.129523
     70 H30        -0.7810    1.6250    5.5870 hc        1 MOL      0.083079
     71 H31        -0.5970    3.3200    5.0670 hc        1 MOL      0.083079
     72 H32         1.6500    2.9360    4.9670 hn        1 MOL      0.321873
     73 H33         2.5310    1.9620    3.8270 hn        1 MOL      0.321873
     74 N8         -2.3400    2.7230    1.5960 n         1 MOL     -0.216316
     75 C23        -1.9670    3.3690    0.3100 c3        1 MOL     -0.282215
     76 C24        -0.4100    3.4510    0.1450 c         1 MOL      0.665944
     77 O12         0.3440    2.8720    0.9210 o         1 MOL     -0.482389
     78 H34        -2.4010    1.7160    1.6150 hn        1 MOL      0.176543
     79 H35        -2.5540    4.2770    0.1990 h1        1 MOL      0.180375
     80 H36        -2.4180    2.7450   -0.4680 h1        1 MOL      0.180375
     81 N9          0.0710    4.1360   -0.8330 n         1 MOL     -0.625418
     82 C25         1.5120    4.2560   -1.2510 c3        1 MOL      0.305874
     83 C26         2.1060    2.9510   -1.8840 c         1 MOL      0.509737
     84 O13         1.3620    2.1870   -2.4330 o         1 MOL     -0.498282
     85 C27         1.6770    5.5190   -2.1250 c3        1 MOL     -0.166969
     86 C28         1.3420    6.9040   -1.5020 ca        1 MOL      0.134156
     87 C29         2.0630    7.3830   -0.3250 ca        1 MOL     -0.225984
     88 C30         0.3080    7.6580   -2.0430 ca        1 MOL     -0.225984
     89 C31         1.7210    8.6220    0.3060 ca        1 MOL     -0.236182
     90 C32         0.0570    8.9300   -1.4510 ca        1 MOL     -0.236182
     91 C33         0.7440    9.4230   -0.2790 ca        1 MOL      0.330562
     92 O14         0.4930   10.6500    0.2300 oh        1 MOL     -0.454191
     93 H37        -0.5990    4.6920   -1.3460 hn        1 MOL      0.322520
     94 H38         2.1150    4.5000   -0.3720 h1        1 MOL     -0.055824
     95 H39         1.0270    5.4330   -2.9940 hc        1 MOL      0.063968
     96 H40         2.7150    5.5620   -2.4620 hc        1 MOL      0.063968
     97 H41         2.8360    6.7740    0.1290 ha        1 MOL      0.159185
     98 H42        -0.3490    7.3070   -2.8270 ha        1 MOL      0.159185
     99 H43         2.2330    9.0580    1.1580 ha        1 MOL      0.155735
    100 H44        -0.7450    9.5550   -1.8040 ha        1 MOL      0.155735
    101 H45         1.0610   10.8050    0.9960 ho        1 MOL      0.352599
    102 N10         3.4290    2.7390   -1.7330 n         1 MOL     -0.651068
    103 C34         4.1830    1.6520   -2.3430 c3        1 MOL      0.387764
    104 C35         5.0350    0.9290   -1.2580 c         1 MOL      0.342873
    105 O15         4.9790   -0.2980   -1.2930 o         1 MOL     -0.496903
    106 C36         5.0070    2.1540   -3.5050 c3        1 MOL      0.042203
    107 C37         4.2680    2.6800   -4.7420 c3        1 MOL     -0.058201
    108 C38         6.0000    1.0020   -3.9580 c3        1 MOL     -0.354427
    109 C39         3.1840    1.8950   -5.4750 c3        1 MOL     -0.131639
    110 H46         3.9410    3.4290   -1.1920 hn        1 MOL      0.280753
    111 H47         3.4930    0.9320   -2.7850 h1        1 MOL      0.032371
    112 H48         5.6600    2.9460   -3.1330 hc        1 MOL     -0.037447
    113 H49         4.9480    3.0370   -5.5260 hc        1 MOL      0.037129
    114 H50         3.7640    3.6110   -4.5060 hc        1 MOL      0.037129
    115 H51         5.4250    0.1390   -4.2710 hc        1 MOL      0.106385
    116 H52         6.5410    1.4030   -4.8160 hc        1 MOL      0.106385
    117 H53         6.8070    0.8460   -3.2440 hc        1 MOL      0.106385
    118 H54         3.6030    1.0570   -6.0340 hc        1 MOL      0.050149
    119 H55         2.4550    1.5540   -4.7290 hc        1 MOL      0.050149
    120 H56         2.6280    2.5600   -6.1320 hc        1 MOL      0.050149
    121 N11         5.7010    1.6970   -0.3880 n         1 MOL     -0.461036
    122 C40         6.1030    1.1820    0.9470 c3        1 MOL      0.014927
    123 C41         7.4860    0.4570    0.9030 c         1 MOL      0.336509
    124 O16         8.0090    0.0000    1.9090 o         1 MOL     -0.472700
    125 C42         5.9260    2.1970    2.0770 c3        1 MOL      0.308316
    126 O17         4.5700    2.5010    2.2380 oh        1 MOL     -0.660521
    127 H57         5.7720    2.6890   -0.5350 hn        1 MOL      0.325752
    128 H58         5.4440    0.3630    1.2250 h1        1 MOL      0.141724
    129 H59         6.5470    3.0620    1.8720 h1        1 MOL      0.007877
    130 H60         6.3420    1.7350    2.9600 h1        1 MOL      0.007877
    131 H61         4.4670    3.3250    2.7080 ho        1 MOL      0.422454
    132 N12         7.9900    0.3210   -0.3170 n         1 MOL     -0.253110
    133 C43         9.1410   -0.4490   -0.6770 c3        1 MOL      0.178789
    134 C44         8.9860   -1.9250   -0.1710 c         1 MOL      0.472279
    135 O18         9.9000   -2.5290    0.3040 o         1 MOL     -0.495851
    136 C45        10.4260    0.1930   -0.1140 c3        1 MOL     -0.247839
    137 H62         7.4510    0.7990   -1.0310 hn        1 MOL      0.171566
    138 H63         9.2150   -0.5020   -1.7640 h1        1 MOL      0.043349
    139 H64        10.5090    0.1320    0.9760 hc        1 MOL      0.077811
    140 H65        11.2910   -0.3310   -0.5200 hc        1 MOL      0.077811
    141 H66        10.5370    1.2360   -0.4170 hc        1 MOL      0.077811
    142 N13         7.7980   -2.5740   -0.2880 n         1 MOL     -0.542765
    143 C46         7.2350   -3.7550    0.5100 c3        1 MOL      0.544695
    144 C47         5.9740   -4.3310   -0.3150 c         1 MOL      0.083665
    145 O19         5.4230   -3.5180   -1.0580 o         1 MOL     -0.398829
    146 C48         6.6640   -3.0610    1.7740 c3        1 MOL     -0.652518
    147 H67         7.1350   -2.0360   -0.8290 hn        1 MOL      0.247998
    148 H68         7.9920   -4.5110    0.7240 h1        1 MOL     -0.001525
    149 H69         5.8290   -3.5690    2.2610 hc        1 MOL      0.183681
    150 H70         7.5040   -2.9940    2.4670 hc        1 MOL      0.183681
    151 H71         6.1840   -2.1290    1.5020 hc        1 MOL      0.183681
    152 N14         5.6020   -5.5940   -0.1170 n         1 MOL     -0.426199
    153 C49         4.5080   -6.3530   -0.6790 c3        1 MOL     -0.177764
    154 C50         4.6060   -6.5720   -2.2450 c         1 MOL      0.407913
    155 O20         3.7980   -7.3760   -2.7640 o         1 MOL     -0.528392
    156 C51         3.1290   -5.6550   -0.2860 c3        1 MOL      0.265214
    157 C52         2.6900   -5.5530    1.1280 c3        1 MOL      0.005419
    158 C53         1.3440   -4.8650    1.2850 c         1 MOL      0.492187
    159 O21         1.2580   -3.6620    0.8950 o         1 MOL     -0.617449
    160 O22         0.3100   -5.5080    1.5930 o         1 MOL     -0.617449
    161 H72         5.9760   -6.0120    0.7180 hn        1 MOL      0.346402
    162 H73         4.4760   -7.3720   -0.3000 h1        1 MOL      0.151653
    163 H74         2.2750   -6.1590   -0.7430 hc        1 MOL     -0.016804
    164 H75         3.1400   -4.6600   -0.7400 hc        1 MOL     -0.016804
    165 H76         3.4410   -4.9740    1.6780 hc        1 MOL     -0.051270
    166 H77         2.6910   -6.5410    1.5810 hc        1 MOL     -0.051270
    167 N15         5.3510   -5.7730   -2.9720 n         1 MOL     -0.148203
    168 C54         5.7700   -5.8400   -4.3710 c3        1 MOL     -0.317080
    169 H78         6.7960   -5.4820   -4.4600 h1        1 MOL      0.130940
    170 H79         5.7160   -6.8720   -4.7180 h1        1 MOL      0.130940
    171 H80         5.1140   -5.2170   -4.9780 h1        1 MOL      0.130940
    172 H81         5.7350   -5.0350   -2.4060 hn        1 MOL      0.264982
    173 Ca1         1.0950   -1.0710    1.1870 Ca        1 MOL      1.736562
    174 O23         2.5490    1.0930    1.1190 oh        1 MOL     -0.857820
    175 H82         3.4020    1.5330    1.1380 ho        1 MOL      0.415568
    176 H83         1.9180    1.8090    1.0220 ho        1 MOL      0.415568
    177 O24         2.2860   -1.3920    3.5560 oh        1 MOL     -0.857820
    178 H84         1.9230   -0.9960    4.3430 ho        1 MOL      0.415568
    179 H85         3.2110   -1.5240    3.7580 ho        1 MOL      0.415568
    180 O25        -0.5020   -2.6920    2.8660 oh        1 MOL     -0.857820
    181 H86        -0.6270   -3.4940    2.3690 ho        1 MOL      0.415568
    182 H87        -0.3590   -2.9720    3.7620 ho        1 MOL      0.415568
    183 O26         1.4030   -0.3970   -1.3960 oh        1 MOL     -0.857820
    184 O27         3.4980   -1.7210    0.3080 oh        1 MOL     -0.857820
    185 H88         1.8570   -0.8910   -2.0890 ho        1 MOL      0.415568
    186 H89         4.1440   -1.3650   -0.2950 ho        1 MOL      0.415568
    187 H90         1.2390    0.4630   -1.7830 ho        1 MOL      0.415568
    188 H91         3.6120   -2.6760    0.2490 ho        1 MOL      0.415568
@<TRIPOS>BOND
     1    1    2 1   
     2    1    4 1   
     3    1    5 1   
     4    1    6 1   
     5    2    3 2   
     6    2    7 1   
     7    7    8 1   
     8    7   15 1   
     9    8    9 1   
    10    8   11 1   
    11    8   16 1   
    12    9   10 2   
    13    9   19 1   
    14   11   12 1   
    15   11   17 1   
    16   11   18 1   
    17   12   13 1   
    18   12   14 1   
    19   19   20 1   
    20   19   28 1   
    21   20   21 1   
    22   20   23 1   
    23   20   29 1   
    24   21   22 2   
    25   21   41 1   
    26   23   24 1   
    27   23   30 1   
    28   23   31 1   
    29   24   25 1   
    30   24   32 1   
    31   24   33 1   
    32   25   26 1   
    33   25   34 1   
    34   25   35 1   
    35   26   27 1   
    36   26   36 1   
    37   26   37 1   
    38   27   38 1   
    39   27   39 1   
    40   27   40 1   
    41   41   42 1   
    42   41   49 1   
    43   42   43 1   
    44   42   45 1   
    45   42   50 1   
    46   43   44 2   
    47   43   53 1   
    48   45   46 1   
    49   45   51 1   
    50   45   52 1   
    51   46   47 1   
    52   46   48 1   
    53   53   54 1   
    54   53   57 1   
    55   54   55 1   
    56   54   58 1   
    57   54   59 1   
    58   55   56 2   
    59   55   60 1   
    60   60   61 1   
    61   60   68 1   
    62   61   62 1   
    63   61   64 1   
    64   61   69 1   
    65   62   63 2   
    66   62   74 1   
    67   64   65 1   
    68   64   70 1   
    69   64   71 1   
    70   65   66 1   
    71   65   67 2   
    72   66   72 1   
    73   66   73 1   
    74   74   75 1   
    75   74   78 1   
    76   75   76 1   
    77   75   79 1   
    78   75   80 1   
    79   76   77 2   
    80   76   81 1   
    81   81   82 1   
    82   81   93 1   
    83   82   83 1   
    84   82   85 1   
    85   82   94 1   
    86   83   84 2   
    87   83  102 1   
    88   85   86 1   
    89   85   95 1   
    90   85   96 1   
    91   86   87 ar  
    92   86   88 ar  
    93   87   89 ar  
    94   87   97 1   
    95   88   90 ar  
    96   88   98 1   
    97   89   91 ar  
    98   89   99 1   
    99   90   91 ar  
   100   90  100 1   
   101   91   92 1   
   102   92  101 1   
   103  102  103 1   
   104  102  110 1   
   105  103  104 1   
   106  103  106 1   
   107  103  111 1   
   108  104  105 2   
   109  104  121 1   
   110  106  107 1   
   111  106  108 1   
   112  106  112 1   
   113  107  109 1   
   114  107  113 1   
   115  107  114 1   
   116  108  115 1   
   117  108  116 1   
   118  108  117 1   
   119  109  118 1   
   120  109  119 1   
   121  109  120 1   
   122  121  122 1   
   123  121  127 1   
   124  122  123 1   
   125  122  125 1   
   126  122  128 1   
   127  123  124 2   
   128  123  132 1   
   129  125  126 1   
   130  125  129 1   
   131  125  130 1   
   132  126  131 1   
   133  132  133 1   
   134  132  137 1   
   135  133  134 1   
   136  133  136 1   
   137  133  138 1   
   138  134  135 2   
   139  134  142 1   
   140  136  139 1   
   141  136  140 1   
   142  136  141 1   
   143  142  143 1   
   144  142  147 1   
   145  143  144 1   
   146  143  146 1   
   147  143  148 1   
   148  144  145 2   
   149  144  152 1   
   150  146  149 1   
   151  146  150 1   
   152  146  151 1   
   153  152  153 1   
   154  152  161 1   
   155  153  154 1   
   156  153  156 1   
   157  153  162 1   
   158  154  155 2   
   159  154  167 1   
   160  156  157 1   
   161  156  163 1   
   162  156  164 1   
   163  157  158 1   
   164  157  165 1   
   165  157  166 1   
   166  158  159 1   
   167  158  160 1   
   168  167  168 1   
   169  167  172 1   
   170  168  169 1   
   171  168  170 1   
   172  168  171 1   
   173  174  175 1   
   174  174  176 1   
   175  177  178 1   
   176  177  179 1   
   177  180  181 1   
   178  180  182 1   
   179  183  185 1   
   180  183  187 1   
   181  184  186 1   
   182  184  188 1   
@<TRIPOS>SUBSTRUCTURE
     1 MOL         1 TEMP              0 ****  ****    0 ROOT
