@<TRIPOS>MOLECULE
MOL
  187   181     1     0     0
SMALL
resp


@<TRIPOS>ATOM
      1 C1          8.8690   -0.6600    6.2450 c3        1 MOL     -0.205991
      2 C2          8.2550   -0.1630    4.9040 c         1 MOL      0.680519
      3 O1          7.1830    0.3480    4.9040 o         1 MOL     -0.580053
      4 H1          9.2090   -1.6890    6.1290 hc        1 MOL      0.039745
      5 H2          9.7150   -0.0270    6.5150 hc        1 MOL      0.039745
      6 H3          8.1150   -0.6130    7.0300 hc        1 MOL      0.039745
      7 N1          8.9250   -0.3650    3.7870 n         1 MOL     -0.580901
      8 C3         10.2830   -0.8290    3.5540 c3        1 MOL      0.494620
      9 C4         10.4410   -2.1870    2.7700 c         1 MOL      0.127430
     10 O2         10.2170   -3.2540    3.3900 o         1 MOL     -0.524284
     11 C5         11.1360    0.2820    2.9830 c3        1 MOL     -0.423460
     12 C6         10.5560    1.0110    1.7770 c         1 MOL      0.844346
     13 O3         10.7980    0.5500    0.6090 o         1 MOL     -0.760795
     14 O4          9.7370    1.9560    1.8250 o         1 MOL     -0.760795
     15 H4          8.4030   -0.0440    2.9800 hn        1 MOL      0.343018
     16 H5         10.7900   -0.9510    4.5030 h1        1 MOL      0.006065
     17 H6         12.1260   -0.1290    2.7490 hc        1 MOL      0.068592
     18 H7         11.1800    0.9870    3.8090 hc        1 MOL      0.068592
     19 N2         10.7540   -2.1610    1.5290 n         1 MOL     -0.018271
     20 C7         10.5780   -3.2870    0.5270 c3        1 MOL      0.360883
     21 C8          9.1220   -3.6600    0.2370 c         1 MOL      0.367676
     22 O5          8.7350   -4.7830    0.0600 o         1 MOL     -0.562401
     23 C9         11.5880   -4.3180    0.8350 c3        1 MOL     -0.296688
     24 H8         10.9500   -1.2240    1.2180 hn        1 MOL      0.037858
     25 H9         10.9890   -2.9360   -0.4270 h1        1 MOL      0.001198
     26 H10        12.0160   -4.6740   -0.1070 hc        1 MOL      0.058118
     27 H11        12.4520   -3.8440    1.3040 hc        1 MOL      0.058118
     28 H12        11.1250   -5.1800    1.2950 hc        1 MOL      0.058118
     29 N3          8.2780   -2.6880    0.2790 n         1 MOL     -0.035704
     30 C10         6.8540   -2.7260    0.0500 c3        1 MOL     -0.006382
     31 C11         6.5790   -2.7560   -1.3920 c         1 MOL      0.566649
     32 O6          7.1310   -1.9700   -2.1950 o         1 MOL     -0.553772
     33 C12         6.1330   -1.6180    0.8510 c3        1 MOL     -0.362628
     34 C13         6.4740   -0.1730    0.7910 c         1 MOL      0.740554
     35 O7          7.6620    0.1530    0.6490 o         1 MOL     -0.638451
     36 O8          5.5810    0.6740    1.0540 o         1 MOL     -0.638451
     37 H13         8.6430   -1.7460    0.3840 hn        1 MOL     -0.065788
     38 H14         6.4850   -3.6610    0.4830 h1        1 MOL      0.089628
     39 H15         6.2270   -1.8300    1.9210 hc        1 MOL      0.117744
     40 H16         5.0730   -1.7560    0.6430 hc        1 MOL      0.117744
     41 N4          5.6630   -3.6150   -1.9410 n         1 MOL     -0.507724
     42 C14         5.3560   -3.6620   -3.3930 c3        1 MOL      0.070511
     43 C15         4.1550   -2.8320   -3.8630 c         1 MOL      0.462576
     44 O9          3.9970   -2.5180   -5.0660 o         1 MOL     -0.533127
     45 H17         5.1270   -4.2170   -1.3310 hn        1 MOL      0.294129
     46 H18         5.1980   -4.6700   -3.7730 h1        1 MOL      0.075389
     47 H19         6.1610   -3.5320   -4.1120 h1        1 MOL      0.075389
     48 N5          3.3200   -2.3710   -2.9520 n         1 MOL     -0.481489
     49 C16         2.1990   -1.4490   -3.2450 c3        1 MOL      0.261485
     50 C17         1.9960   -0.2950   -2.2910 c         1 MOL      0.617170
     51 O10         2.2610   -0.4320   -1.0870 o         1 MOL     -0.575228
     52 C18         0.8990   -2.2080   -3.4290 c3        1 MOL     -0.313962
     53 C19         0.8810   -3.2480   -4.5360 c         1 MOL      0.548331
     54 N6          0.2940   -2.8830   -5.6320 n         1 MOL     -0.605809
     55 O11         1.5840   -4.2820   -4.4700 o         1 MOL     -0.539674
     56 H20         3.5090   -2.6180   -1.9880 hn        1 MOL      0.302662
     57 H21         2.3690   -0.9620   -4.2050 h1        1 MOL     -0.001399
     58 H22         0.1130   -1.5410   -3.7520 hc        1 MOL      0.113469
     59 H23         0.6440   -2.6220   -2.4480 hc        1 MOL      0.113469
     60 H24        -0.3350   -2.0950   -5.5600 hn        1 MOL      0.320141
     61 H25         0.2600   -3.3660   -6.5200 hn        1 MOL      0.320141
     62 N7          1.4580    0.8740   -2.7150 n         1 MOL     -0.574936
     63 C20         0.9250    1.8270   -1.7480 c3        1 MOL      0.043145
     64 C21         0.5130    3.0940   -2.4370 c         1 MOL      0.711250
     65 O12         0.5440    3.1710   -3.6750 o         1 MOL     -0.597909
     66 H26         1.0980    0.9680   -3.6560 hn        1 MOL      0.300138
     67 H27         1.7040    2.0940   -1.0420 h1        1 MOL      0.093991
     68 H28        -0.0300    1.4760   -1.3410 h1        1 MOL      0.093991
     69 N8          0.1050    4.1700   -1.7570 n         1 MOL     -0.691667
     70 C22        -0.1240    4.2870   -0.3080 c3        1 MOL     -0.035965
     71 C23        -1.4670    3.4820    0.0520 c         1 MOL      0.470547
     72 O13        -2.1370    2.9910   -0.8670 o         1 MOL     -0.415126
     73 C24        -0.2190    5.8350    0.0820 c3        1 MOL      0.392901
     74 C25         1.0460    6.7020    0.0480 c3        1 MOL     -0.293074
     75 O14        -1.1230    6.3950   -0.8340 oh        1 MOL     -0.555685
     76 H29        -0.1820    5.0030   -2.2510 hn        1 MOL      0.369170
     77 H30         0.6160    3.8570    0.3570 h1        1 MOL      0.031804
     78 H31        -0.6530    6.0050    1.0690 h1        1 MOL      0.028948
     79 H32        -0.6110    6.9200   -1.4500 ho        1 MOL      0.357489
     80 H33         1.8020    6.5330   -0.7080 hc        1 MOL      0.067105
     81 H34         0.6630    7.7180   -0.0600 hc        1 MOL      0.067105
     82 H35         1.5410    6.6490    1.0200 hc        1 MOL      0.067105
     83 N9         -1.8580    3.2180    1.2550 n         1 MOL     -0.323073
     84 C26        -3.0700    2.4010    1.5780 c3        1 MOL     -0.171469
     85 C27        -4.2280    3.4390    1.6790 c         1 MOL      0.754502
     86 O15        -3.9640    4.4680    2.2700 o         1 MOL     -0.665445
     87 C28        -2.8160    1.6830    2.8720 c3        1 MOL      0.179481
     88 C29        -1.6540    0.6560    2.7380 c3        1 MOL     -0.078421
     89 C30        -4.0690    0.9790    3.4760 c3        1 MOL     -0.142119
     90 C31        -1.2300   -0.0740    4.0170 c3        1 MOL      0.002612
     91 H36        -1.3340    3.5460    2.0560 hn        1 MOL      0.219969
     92 H37        -3.2530    1.7320    0.7350 h1        1 MOL      0.101687
     93 H38        -2.4340    2.3390    3.6540 hc        1 MOL     -0.028302
     94 H39        -0.8200    1.1970    2.2960 hc        1 MOL      0.029845
     95 H40        -2.0560   -0.0880    2.0520 hc        1 MOL      0.029845
     96 H41        -4.8000    1.7220    3.8030 hc        1 MOL      0.033044
     97 H42        -4.5040    0.2150    2.8340 hc        1 MOL      0.033044
     98 H43        -3.6420    0.5790    4.3910 hc        1 MOL      0.033044
     99 H44        -1.1430    0.6080    4.8590 hc        1 MOL     -0.008423
    100 H45        -1.9610   -0.8100    4.3780 hc        1 MOL     -0.008423
    101 H46        -0.2210   -0.4830    3.9220 hc        1 MOL     -0.008423
    102 N10        -5.4230    3.2220    1.2110 n         1 MOL     -0.552869
    103 C32        -5.7900    2.0700    0.3800 c3        1 MOL      0.098963
    104 C33        -7.2160    1.6270    0.7840 c         1 MOL      0.520027
    105 O16        -7.4590    1.5810    2.0070 o         1 MOL     -0.584768
    106 C34        -5.5750    2.4520   -1.1110 c3        1 MOL     -0.009966
    107 C35        -6.1900    3.7350   -1.7260 c         1 MOL      0.638385
    108 O17        -5.5890    4.2800   -2.6810 o         1 MOL     -0.670472
    109 O18        -7.2910    4.0790   -1.3380 o         1 MOL     -0.670472
    110 H47        -6.0310    4.0160    1.3310 hn        1 MOL      0.319324
    111 H48        -5.1610    1.2040    0.5030 h1        1 MOL      0.122801
    112 H49        -5.9210    1.5150   -1.5500 hc        1 MOL     -0.034226
    113 H50        -4.4960    2.4900   -1.2380 hc        1 MOL     -0.034226
    114 N11        -8.0710    1.2860   -0.1480 n         1 MOL     -0.531973
    115 C36        -9.3570    0.6300    0.1050 c3        1 MOL      0.504747
    116 C37       -10.0210   -0.1650   -1.0920 c         1 MOL      0.204069
    117 O19        -9.9090    0.4280   -2.1390 o         1 MOL     -0.473299
    118 C38       -10.4450    1.7110    0.3970 c3        1 MOL     -0.386451
    119 C39       -11.7510    1.1230    0.8440 ca        1 MOL      0.166340
    120 C40       -12.8630    1.1250   -0.0290 ca        1 MOL     -0.193726
    121 C41       -11.9010    0.5610    2.1380 ca        1 MOL     -0.193726
    122 C42       -13.9950    0.4020    0.3060 ca        1 MOL     -0.086187
    123 C43       -13.1330   -0.0460    2.5010 ca        1 MOL     -0.086187
    124 C44       -14.1510   -0.3440    1.5150 ca        1 MOL     -0.223965
    125 H51        -7.7240    1.5260   -1.0690 hn        1 MOL      0.319188
    126 H52        -9.2350   -0.0300    0.9720 h1        1 MOL     -0.018835
    127 H53       -10.5730    2.2420   -0.5470 hc        1 MOL      0.125461
    128 H54       -10.0750    2.3900    1.1550 hc        1 MOL      0.125461
    129 H55       -12.7770    1.6660   -0.9620 ha        1 MOL      0.143825
    130 H56       -11.0670    0.6050    2.8210 ha        1 MOL      0.143825
    131 H57       -14.7040    0.2770   -0.5020 ha        1 MOL      0.091081
    132 H58       -13.2910   -0.3680    3.5210 ha        1 MOL      0.091081
    133 H59       -14.9000   -1.1010    1.7060 ha        1 MOL      0.137871
    134 N12       -10.6880   -1.3450   -0.9730 n         1 MOL      0.016846
    135 C45       -10.7930   -2.3420    0.0870 c3        1 MOL      0.214451
    136 C46        -9.5990   -2.5520    0.9780 c         1 MOL      0.285527
    137 O20        -9.7300   -2.4790    2.2190 o         1 MOL     -0.517900
    138 C47       -11.1660   -3.6340   -0.5110 c3        1 MOL      0.032394
    139 C48       -12.0880   -3.1500   -1.6420 c3        1 MOL     -0.104622
    140 C49       -11.3760   -1.8380   -2.1350 c3        1 MOL     -0.210243
    141 H60       -11.5620   -1.9770    0.7690 h1        1 MOL     -0.005843
    142 H61       -10.2550   -4.1680   -0.7850 hc        1 MOL      0.010679
    143 H62       -11.7060   -4.2710    0.1910 hc        1 MOL      0.010679
    144 H63       -12.1600   -3.8490   -2.4760 hc        1 MOL      0.039805
    145 H64       -13.0430   -2.9180   -1.1770 hc        1 MOL      0.039805
    146 H65       -10.6810   -2.0970   -2.9300 h1        1 MOL      0.093182
    147 H66       -12.0460   -1.0090   -2.3680 h1        1 MOL      0.093182
    148 N13        -8.4100   -2.6910    0.3770 n         1 MOL     -0.243484
    149 C50        -7.2640   -3.3410    1.0390 c3        1 MOL      0.189789
    150 C51        -7.4520   -4.7660    1.4700 c         1 MOL      0.337602
    151 O21        -7.6140   -5.7030    0.7080 o         1 MOL     -0.568857
    152 C52        -6.0480   -3.0470    0.2370 c3        1 MOL     -0.119810
    153 C53        -5.6960   -1.5640    0.2960 c3        1 MOL     -0.008584
    154 C54        -4.5560   -1.4190   -0.6670 c         1 MOL      0.682408
    155 O22        -4.6620   -1.2900   -1.9030 o         1 MOL     -0.703392
    156 O23        -3.4740   -1.4550   -0.1040 o         1 MOL     -0.703392
    157 H67        -8.3860   -2.7340   -0.6330 hn        1 MOL      0.221129
    158 H68        -7.1230   -2.7620    1.9440 h1        1 MOL      0.056456
    159 H69        -6.1790   -3.4740   -0.7550 hc        1 MOL      0.042159
    160 H70        -5.2180   -3.5250    0.7550 hc        1 MOL      0.042159
    161 H71        -5.5480   -1.2580    1.3330 hc        1 MOL     -0.033083
    162 H72        -6.5520   -1.0230   -0.1110 hc        1 MOL     -0.033083
    163 N14        -7.5070   -5.0680    2.7680 n         1 MOL     -0.219142
    164 C55        -7.5040   -4.2380    3.9470 c3        1 MOL     -0.213171
    165 H73        -8.2040   -3.4140    3.8120 h1        1 MOL      0.093753
    166 H74        -7.8040   -4.8310    4.8110 h1        1 MOL      0.093753
    167 H75        -6.5010   -3.8410    4.1090 h1        1 MOL      0.093753
    168 H76        -7.4950   -6.0720    2.8780 hn        1 MOL      0.237666
    169 Ca1         9.0100    1.9810   -0.7620 Ca        1 MOL      1.711566
    170 O24         9.7330   -0.4570   -2.0420 oh        1 MOL     -0.791073
    171 H77        10.3080   -0.7140   -2.7650 ho        1 MOL      0.379130
    172 H78         8.8940   -0.8750   -2.2300 ho        1 MOL      0.379130
    173 O25         9.6540    2.4350   -3.2340 oh        1 MOL     -0.791073
    174 H79        10.5500    2.7360   -3.3770 ho        1 MOL      0.379130
    175 H80         9.2770    2.3570   -4.1140 ho        1 MOL      0.379130
    176 O26        11.0350    3.5260   -0.9400 oh        1 MOL     -0.791073
    177 H81        11.8420    3.6790   -0.4430 ho        1 MOL      0.379130
    178 H82        11.1040    4.1220   -1.6890 ho        1 MOL      0.379130
    179 O27         8.0180    4.5330   -1.4140 oh        1 MOL     -0.791073
    180 H83         7.7870    5.2260   -0.7980 ho        1 MOL      0.379130
    181 H84         7.2740    4.4700   -2.0130 ho        1 MOL      0.379130
    182 O28         7.2770    3.0330    1.1220 oh        1 MOL     -0.791073
    183 H85         7.0220    2.1710    1.4600 ho        1 MOL      0.379130
    184 H86         6.4570    3.5330    1.0880 ho        1 MOL      0.379130
    185 O29         6.6680    1.8040   -2.0020 oh        1 MOL     -0.791073
    186 H87         5.7670    1.8950   -1.7030 ho        1 MOL      0.379130
    187 H88         6.6110    1.2570   -2.7860 ho        1 MOL      0.379130
@<TRIPOS>BOND
     1    1    2 1   
     2    1    4 1   
     3    1    5 1   
     4    1    6 1   
     5    2    3 2   
     6    2    7 1   
     7    7    8 1   
     8    7   15 1   
     9    8    9 1   
    10    8   11 1   
    11    8   16 1   
    12    9   10 2   
    13    9   19 1   
    14   11   12 1   
    15   11   17 1   
    16   11   18 1   
    17   12   13 1   
    18   12   14 1   
    19   19   20 1   
    20   19   24 1   
    21   20   21 1   
    22   20   23 1   
    23   20   25 1   
    24   21   22 2   
    25   21   29 1   
    26   23   26 1   
    27   23   27 1   
    28   23   28 1   
    29   29   30 1   
    30   29   37 1   
    31   30   31 1   
    32   30   33 1   
    33   30   38 1   
    34   31   32 2   
    35   31   41 1   
    36   33   34 1   
    37   33   39 1   
    38   33   40 1   
    39   34   35 1   
    40   34   36 1   
    41   41   42 1   
    42   41   45 1   
    43   42   43 1   
    44   42   46 1   
    45   42   47 1   
    46   43   44 2   
    47   43   48 1   
    48   48   49 1   
    49   48   56 1   
    50   49   50 1   
    51   49   52 1   
    52   49   57 1   
    53   50   51 2   
    54   50   62 1   
    55   52   53 1   
    56   52   58 1   
    57   52   59 1   
    58   53   54 1   
    59   53   55 2   
    60   54   60 1   
    61   54   61 1   
    62   62   63 1   
    63   62   66 1   
    64   63   64 1   
    65   63   67 1   
    66   63   68 1   
    67   64   65 2   
    68   64   69 1   
    69   69   70 1   
    70   69   76 1   
    71   70   71 1   
    72   70   73 1   
    73   70   77 1   
    74   71   72 2   
    75   71   83 1   
    76   73   74 1   
    77   73   75 1   
    78   73   78 1   
    79   74   80 1   
    80   74   81 1   
    81   74   82 1   
    82   75   79 1   
    83   83   84 1   
    84   83   91 1   
    85   84   85 1   
    86   84   87 1   
    87   84   92 1   
    88   85   86 2   
    89   85  102 1   
    90   87   88 1   
    91   87   89 1   
    92   87   93 1   
    93   88   90 1   
    94   88   94 1   
    95   88   95 1   
    96   89   96 1   
    97   89   97 1   
    98   89   98 1   
    99   90   99 1   
   100   90  100 1   
   101   90  101 1   
   102  102  103 1   
   103  102  110 1   
   104  103  104 1   
   105  103  106 1   
   106  103  111 1   
   107  104  105 2   
   108  104  114 1   
   109  106  107 1   
   110  106  112 1   
   111  106  113 1   
   112  107  108 1   
   113  107  109 1   
   114  114  115 1   
   115  114  125 1   
   116  115  116 1   
   117  115  118 1   
   118  115  126 1   
   119  116  117 2   
   120  116  134 1   
   121  118  119 1   
   122  118  127 1   
   123  118  128 1   
   124  119  120 ar  
   125  119  121 ar  
   126  120  122 ar  
   127  120  129 1   
   128  121  123 ar  
   129  121  130 1   
   130  122  124 ar  
   131  122  131 1   
   132  123  124 ar  
   133  123  132 1   
   134  124  133 1   
   135  134  135 1   
   136  134  140 1   
   137  135  136 1   
   138  135  138 1   
   139  135  141 1   
   140  136  137 2   
   141  136  148 1   
   142  138  139 1   
   143  138  142 1   
   144  138  143 1   
   145  139  140 1   
   146  139  144 1   
   147  139  145 1   
   148  140  146 1   
   149  140  147 1   
   150  148  149 1   
   151  148  157 1   
   152  149  150 1   
   153  149  152 1   
   154  149  158 1   
   155  150  151 2   
   156  150  163 1   
   157  152  153 1   
   158  152  159 1   
   159  152  160 1   
   160  153  154 1   
   161  153  161 1   
   162  153  162 1   
   163  154  155 1   
   164  154  156 1   
   165  163  164 1   
   166  163  168 1   
   167  164  165 1   
   168  164  166 1   
   169  164  167 1   
   170  170  171 1   
   171  170  172 1   
   172  173  174 1   
   173  173  175 1   
   174  176  177 1   
   175  176  178 1   
   176  179  180 1   
   177  179  181 1   
   178  182  183 1   
   179  182  184 1   
   180  185  186 1   
   181  185  187 1   
@<TRIPOS>SUBSTRUCTURE
     1 MOL         1 TEMP              0 ****  ****    0 ROOT
