@<TRIPOS>MOLECULE
MOL
  189   185     1     0     0
SMALL
resp


@<TRIPOS>ATOM
      1 C1          4.1970    4.0430   -3.8470 c3        1 MOL     -0.493971
      2 C2          4.8940    3.2260   -2.7500 c         1 MOL      0.627389
      3 O1          4.3110    3.0030   -1.6790 o         1 MOL     -0.482331
      4 H1          3.1750    3.6850   -3.9710 hc        1 MOL      0.135420
      5 H2          4.1800    5.0950   -3.5620 hc        1 MOL      0.135420
      6 H3          4.7380    3.9280   -4.7860 hc        1 MOL      0.135420
      7 N1          6.1790    2.7550   -2.9830 n         1 MOL     -0.540513
      8 C3          6.9190    1.7360   -2.3650 c3        1 MOL      0.354455
      9 C4          6.1100    0.5260   -1.9600 c         1 MOL      0.424506
     10 O2          5.6390    0.4640   -0.8480 o         1 MOL     -0.535102
     11 C5          7.9220    2.2020   -1.2450 c3        1 MOL     -0.347869
     12 C6          7.4810    3.2230   -0.1650 c         1 MOL      0.719311
     13 O3          6.4230    3.0690    0.4380 o         1 MOL     -0.713163
     14 O4          8.1790    4.2550    0.1260 o         1 MOL     -0.713163
     15 H4          6.5610    3.0290   -3.8740 hn        1 MOL      0.276704
     16 H5          7.6850    1.3460   -3.0230 h1        1 MOL     -0.007809
     17 H6          8.7850    2.5550   -1.8060 hc        1 MOL      0.066175
     18 H7          8.1890    1.3300   -0.6500 hc        1 MOL      0.066175
     19 N2          5.7480   -0.3240   -2.9190 n         1 MOL     -0.624215
     20 C7          4.9530   -1.5550   -2.8850 c3        1 MOL      0.335708
     21 C8          5.4070   -2.6680   -1.8990 c         1 MOL      0.211459
     22 O5          5.2970   -3.8330   -2.3450 o         1 MOL     -0.531758
     23 C9          3.4480   -1.1500   -2.8470 c3        1 MOL      0.658792
     24 C10         2.6010   -2.4750   -3.0720 c3        1 MOL     -0.072493
     25 C11         3.0520   -0.1410   -3.8870 c3        1 MOL     -0.370681
     26 C12         2.6540   -3.2150   -4.4050 c3        1 MOL     -0.152366
     27 H8          6.0390   -0.0140   -3.8400 hn        1 MOL      0.251832
     28 H9          5.0620   -2.0150   -3.8700 h1        1 MOL     -0.020732
     29 H10         3.1480   -0.7740   -1.8680 hc        1 MOL     -0.382191
     30 H11         1.5730   -2.1840   -2.8770 hc        1 MOL      0.059425
     31 H12         2.9270   -3.1280   -2.2650 hc        1 MOL      0.059425
     32 H13         2.0420   -0.1530   -4.2680 hc        1 MOL      0.046847
     33 H14         3.2270    0.8450   -3.4560 hc        1 MOL      0.046847
     34 H15         3.6810   -0.2090   -4.7730 hc        1 MOL      0.046847
     35 H16         1.8580   -3.9430   -4.5290 hc        1 MOL      0.011551
     36 H17         2.6990   -2.4510   -5.1800 hc        1 MOL      0.011551
     37 H18         3.5910   -3.7750   -4.4530 hc        1 MOL      0.011551
     38 N3          5.8570   -2.4280   -0.6900 n         1 MOL      0.003262
     39 C13         6.5820   -3.3810    0.2050 c3        1 MOL     -0.070814
     40 C14         5.9000   -4.7290    0.5080 c         1 MOL      0.545565
     41 O6          6.6060   -5.7710    0.4740 o         1 MOL     -0.556643
     42 C15         7.0630   -2.6250    1.4370 c3        1 MOL     -0.197846
     43 C16         7.9300   -3.5720    2.3160 c         1 MOL      0.704931
     44 O7          9.1770   -3.6910    2.0640 o         1 MOL     -0.724457
     45 O8          7.3670   -4.0260    3.3830 o         1 MOL     -0.724457
     46 H19         5.9840   -1.4620   -0.4380 hn        1 MOL      0.148887
     47 H20         7.5170   -3.6320   -0.3080 h1        1 MOL      0.056786
     48 H21         6.2060   -2.2290    1.9840 hc        1 MOL      0.054713
     49 H22         7.7860   -1.8310    1.2610 hc        1 MOL      0.054713
     50 N4          4.5970   -4.8080    0.7260 n         1 MOL     -0.488095
     51 C17         3.6040   -3.7030    0.9380 c3        1 MOL      0.250607
     52 C18         2.3900   -4.1120    1.7230 c         1 MOL      0.560299
     53 O9          1.8690   -5.2070    1.5510 o         1 MOL     -0.584481
     54 H23         4.2170   -5.7350    0.8520 hn        1 MOL      0.268675
     55 H24         3.3180   -3.2190    0.0080 h1        1 MOL      0.008833
     56 H25         4.1710   -3.0870    1.6350 h1        1 MOL      0.008833
     57 N5          1.7710   -3.2030    2.5020 n         1 MOL     -0.601815
     58 C19         1.9870   -1.7590    2.8280 c3        1 MOL      0.396428
     59 C20         2.2630   -1.0150    1.4740 c         1 MOL      0.112515
     60 O10         3.3020   -0.5110    1.1950 o         1 MOL     -0.477867
     61 C21         3.0430   -1.5540    3.9020 c3        1 MOL     -0.379231
     62 C22         3.0040   -0.1210    4.4170 c         1 MOL      0.852981
     63 O11         1.9740    0.5540    4.2930 o         1 MOL     -0.720693
     64 O12         3.9380    0.2280    5.1550 o         1 MOL     -0.720693
     65 H26         1.0370   -3.6350    3.0340 hn        1 MOL      0.288856
     66 H27         1.0320   -1.4240    3.2430 h1        1 MOL      0.015594
     67 H28         4.0380   -1.8730    3.5880 hc        1 MOL      0.087621
     68 H29         2.7180   -2.1970    4.7230 hc        1 MOL      0.087621
     69 N6          1.2880   -0.8570    0.5620 n         1 MOL     -0.134935
     70 C23        -0.1090   -1.1430    0.5720 c3        1 MOL     -0.282913
     71 C24        -0.5260   -2.5170   -0.0100 c         1 MOL      0.584737
     72 O13         0.1140   -3.1180   -0.8580 o         1 MOL     -0.536326
     73 H30         1.6100   -0.2930   -0.2100 hn        1 MOL      0.335536
     74 H31        -0.6920   -0.4020    0.0080 h1        1 MOL      0.142192
     75 H32        -0.4970   -0.9270    1.5720 h1        1 MOL      0.142192
     76 N7         -1.5700   -2.9620    0.5810 n         1 MOL     -0.419443
     77 C25        -2.2410   -4.2060    0.0300 c3        1 MOL     -0.006601
     78 C26        -3.0240   -4.0670   -1.2770 c         1 MOL      0.334042
     79 O14        -3.3560   -4.9980   -1.9900 o         1 MOL     -0.502192
     80 C27        -3.0150   -4.8350    1.2180 c3        1 MOL      0.158473
     81 C28        -4.1630   -3.9720    1.7950 c3        1 MOL     -0.578741
     82 C29        -5.3750   -3.7290    0.9050 c         1 MOL      0.625102
     83 N8         -6.1510   -4.6820    0.5610 n         1 MOL     -0.739780
     84 O15        -5.5260   -2.6100    0.4740 o         1 MOL     -0.506963
     85 H33        -1.9530   -2.4430    1.3570 hn        1 MOL      0.242417
     86 H34        -1.5080   -4.9400   -0.2950 h1        1 MOL      0.151641
     87 H35        -2.3280   -5.1250    2.0180 hc        1 MOL     -0.002041
     88 H36        -3.4300   -5.7690    0.8340 hc        1 MOL     -0.002041
     89 H37        -3.7840   -3.0460    2.2330 hc        1 MOL      0.195856
     90 H38        -4.6300   -4.4740    2.6460 hc        1 MOL      0.195856
     91 H39        -5.8960   -5.6550    0.6850 hn        1 MOL      0.365382
     92 H40        -6.9800   -4.4810    0.0250 hn        1 MOL      0.365382
     93 N9         -3.2880   -2.7880   -1.6260 n         1 MOL     -0.121709
     94 C30        -3.7770   -2.2720   -2.9760 c3        1 MOL     -0.068653
     95 C31        -5.1390   -1.5580   -3.0430 c         1 MOL      0.339847
     96 O16        -5.4650   -1.0850   -4.1320 o         1 MOL     -0.543058
     97 C32        -2.6000   -1.4630   -3.6440 c3        1 MOL      0.335030
     98 C33        -1.4870   -2.3800   -4.0740 c3        1 MOL     -0.248495
     99 C34        -2.1910   -0.2260   -2.8100 c3        1 MOL     -0.248495
    100 H41        -3.3750   -2.0650   -0.9330 hn        1 MOL      0.176104
    101 H42        -4.0120   -3.1150   -3.6190 h1        1 MOL      0.091951
    102 H43        -3.0430   -1.0280   -4.5350 hc        1 MOL     -0.059352
    103 H44        -1.0620   -2.8210   -3.1800 hc        1 MOL      0.050448
    104 H45        -1.9250   -3.1330   -4.7310 hc        1 MOL      0.050448
    105 H46        -0.6220   -1.8850   -4.4930 hc        1 MOL      0.050448
    106 H47        -1.4040    0.3420   -3.2950 hc        1 MOL      0.050448
    107 H48        -3.0890    0.3920   -2.7850 hc        1 MOL      0.050448
    108 H49        -1.9120   -0.5130   -1.7970 hc        1 MOL      0.050448
    109 N10        -5.9050   -1.4250   -2.0020 n         1 MOL     -0.128865
    110 C35        -7.2120   -0.7310   -2.0070 c3        1 MOL     -0.061464
    111 C36        -7.1950    0.6260   -1.3600 c         1 MOL      0.531641
    112 O17        -8.1750    1.3460   -1.3430 o         1 MOL     -0.559630
    113 C37        -8.2090   -1.6130   -1.2610 c3        1 MOL     -0.077077
    114 C38        -8.3860   -3.0150   -1.8220 c         1 MOL      0.683972
    115 N11        -8.5340   -3.1960   -3.1200 n         1 MOL     -0.822058
    116 O18        -8.5640   -3.9290   -1.0540 o         1 MOL     -0.591391
    117 H50        -5.5340   -1.8110   -1.1490 hn        1 MOL      0.122048
    118 H51        -7.6170   -0.6720   -3.0180 h1        1 MOL      0.068179
    119 H52        -9.2450   -1.2830   -1.2670 hc        1 MOL      0.040675
    120 H53        -7.9600   -1.7780   -0.2120 hc        1 MOL      0.040675
    121 H54        -8.2710   -2.4360   -3.7280 hn        1 MOL      0.382631
    122 H55        -8.8070   -4.1250   -3.4330 hn        1 MOL      0.382631
    123 N12        -6.1760    1.0150   -0.5590 n         1 MOL     -0.393754
    124 C39        -6.0780    2.3090    0.2190 c3        1 MOL      0.424284
    125 C40        -4.6800    2.8590    0.3140 c         1 MOL      0.315486
    126 O19        -3.6790    2.1610    0.2850 o         1 MOL     -0.438532
    127 C41        -6.8080    2.1800    1.5650 c3        1 MOL     -0.115657
    128 C42        -6.5660    0.8500    2.3210 ca        1 MOL     -0.066035
    129 C43        -7.6900    0.0180    2.6820 ca        1 MOL      0.028835
    130 C44        -5.3100    0.4940    2.8150 ca        1 MOL      0.028835
    131 C45        -7.4840   -1.2610    3.3350 ca        1 MOL     -0.418204
    132 C46        -5.1180   -0.7420    3.4300 ca        1 MOL     -0.418204
    133 C47        -6.1540   -1.6870    3.6230 ca        1 MOL      0.465307
    134 O20        -5.9410   -2.9010    4.2270 oh        1 MOL     -0.502316
    135 H56        -5.3090    0.5020   -0.6040 hn        1 MOL      0.192026
    136 H57        -6.6100    3.0260   -0.4070 h1        1 MOL     -0.031815
    137 H58        -7.8620    2.2280    1.2740 hc        1 MOL      0.026787
    138 H59        -6.6120    3.0940    2.1190 hc        1 MOL      0.026787
    139 H60        -8.7050    0.3580    2.5510 ha        1 MOL      0.086934
    140 H61        -4.4560    1.1530    2.7500 ha        1 MOL      0.086934
    141 H62        -8.3240   -1.9120    3.5140 ha        1 MOL      0.171189
    142 H63        -4.1620   -0.9660    3.8860 ha        1 MOL      0.171189
    143 H64        -6.7600   -3.3310    4.4840 ho        1 MOL      0.349196
    144 N13        -4.5460    4.1840    0.4730 n         1 MOL     -0.584057
    145 C48        -3.4240    4.9240    0.9970 c3        1 MOL      0.158655
    146 C49        -2.1540    5.0630    0.1950 c         1 MOL      0.465288
    147 O21        -1.4120    6.0280    0.3840 o         1 MOL     -0.553147
    148 C50        -3.0990    4.4630    2.4450 c3        1 MOL      0.088989
    149 C51        -2.6740    5.5520    3.4080 c3        1 MOL     -0.616788
    150 C52        -2.4580    5.0490    4.8020 c         1 MOL      0.825069
    151 O22        -1.3010    4.9600    5.3000 o         1 MOL     -0.751003
    152 O23        -3.4790    4.6870    5.4540 o         1 MOL     -0.751003
    153 H65        -5.3210    4.8160    0.3280 hn        1 MOL      0.315502
    154 H66        -3.7570    5.9560    1.1000 h1        1 MOL      0.026445
    155 H67        -2.3050    3.7270    2.3330 hc        1 MOL      0.093717
    156 H68        -3.9750    3.9500    2.8490 hc        1 MOL      0.093717
    157 H69        -3.4340    6.3350    3.3610 hc        1 MOL      0.128195
    158 H70        -1.6850    5.9760    3.1950 hc        1 MOL      0.128195
    159 N14        -1.8800    4.1510   -0.7500 n         1 MOL     -0.230041
    160 C53        -0.7460    4.2790   -1.6290 c3        1 MOL     -0.501126
    161 C54        -0.8590    5.3210   -2.7760 c         1 MOL      0.533254
    162 O24        -0.0690    5.4590   -3.7090 o         1 MOL     -0.536328
    163 C55        -0.3100    2.9190   -2.1020 c3        1 MOL      0.151673
    164 C56        -0.1160    1.8670   -1.0640 c3        1 MOL      0.291100
    165 C57         1.1280    2.0310   -0.3170 c         1 MOL      0.378945
    166 O25         1.0800    2.8120    0.6700 o         1 MOL     -0.594317
    167 O26         2.1310    1.3640   -0.5990 o         1 MOL     -0.594317
    168 H71        -2.4310    3.2990   -0.6950 hn        1 MOL      0.194806
    169 H72         0.1070    4.6270   -1.0540 h1        1 MOL      0.267140
    170 H73         0.5290    2.9080   -2.7960 hc        1 MOL      0.010666
    171 H74        -1.0730    2.6170   -2.8060 hc        1 MOL      0.010666
    172 H75        -0.0790    0.9220   -1.6040 hc        1 MOL     -0.102349
    173 H76        -0.9760    1.7860   -0.4020 hc        1 MOL     -0.102349
    174 N15        -2.1160    5.7510   -2.8790 n         1 MOL     -0.151742
    175 C58        -2.6850    6.5880   -3.8810 c3        1 MOL     -0.178781
    176 H77        -3.7240    6.3030   -4.0460 h1        1 MOL      0.069266
    177 H78        -2.6420    7.6280   -3.5540 h1        1 MOL      0.069266
    178 H79        -2.1250    6.4760   -4.8100 h1        1 MOL      0.069266
    179 H80        -2.7360    5.6530   -2.0840 hn        1 MOL      0.192505
    180 Ca1         4.1230    2.0320    0.7120 Ca        1 MOL      1.784360
    181 O27         4.0690    4.6890    0.6500 oh        1 MOL     -0.901832
    182 H81         3.4780    5.4400    0.5960 ho        1 MOL      0.426191
    183 H82         4.9200    5.0710    0.8600 ho        1 MOL      0.426191
    184 O28         3.3890    2.8000    3.2070 oh        1 MOL     -0.901832
    185 H83         3.0070    3.6540    3.4100 ho        1 MOL      0.426191
    186 H84         2.8370    2.1690    3.6660 ho        1 MOL      0.426191
    187 O29         5.4750    0.9910    2.6720 oh        1 MOL     -0.901832
    188 H85         5.3760    0.8900    3.6150 ho        1 MOL      0.426191
    189 H86         6.4230    0.9470    2.5220 ho        1 MOL      0.426191
@<TRIPOS>BOND
     1    1    2 1   
     2    1    4 1   
     3    1    5 1   
     4    1    6 1   
     5    2    3 2   
     6    2    7 1   
     7    7    8 1   
     8    7   15 1   
     9    8    9 1   
    10    8   11 1   
    11    8   16 1   
    12    9   10 2   
    13    9   19 1   
    14   11   12 1   
    15   11   17 1   
    16   11   18 1   
    17   12   13 1   
    18   12   14 1   
    19   19   20 1   
    20   19   27 1   
    21   20   21 1   
    22   20   23 1   
    23   20   28 1   
    24   21   22 2   
    25   21   38 1   
    26   23   24 1   
    27   23   25 1   
    28   23   29 1   
    29   24   26 1   
    30   24   30 1   
    31   24   31 1   
    32   25   32 1   
    33   25   33 1   
    34   25   34 1   
    35   26   35 1   
    36   26   36 1   
    37   26   37 1   
    38   38   39 1   
    39   38   46 1   
    40   39   40 1   
    41   39   42 1   
    42   39   47 1   
    43   40   41 2   
    44   40   50 1   
    45   42   43 1   
    46   42   48 1   
    47   42   49 1   
    48   43   44 1   
    49   43   45 1   
    50   50   51 1   
    51   50   54 1   
    52   51   52 1   
    53   51   55 1   
    54   51   56 1   
    55   52   53 2   
    56   52   57 1   
    57   57   58 1   
    58   57   65 1   
    59   58   59 1   
    60   58   61 1   
    61   58   66 1   
    62   59   60 2   
    63   59   69 1   
    64   61   62 1   
    65   61   67 1   
    66   61   68 1   
    67   62   63 1   
    68   62   64 1   
    69   69   70 1   
    70   69   73 1   
    71   70   71 1   
    72   70   74 1   
    73   70   75 1   
    74   71   72 2   
    75   71   76 1   
    76   76   77 1   
    77   76   85 1   
    78   77   78 1   
    79   77   80 1   
    80   77   86 1   
    81   78   79 2   
    82   78   93 1   
    83   80   81 1   
    84   80   87 1   
    85   80   88 1   
    86   81   82 1   
    87   81   89 1   
    88   81   90 1   
    89   82   83 1   
    90   82   84 2   
    91   83   91 1   
    92   83   92 1   
    93   93   94 1   
    94   93  100 1   
    95   94   95 1   
    96   94   97 1   
    97   94  101 1   
    98   95   96 2   
    99   95  109 1   
   100   97   98 1   
   101   97   99 1   
   102   97  102 1   
   103   98  103 1   
   104   98  104 1   
   105   98  105 1   
   106   99  106 1   
   107   99  107 1   
   108   99  108 1   
   109  109  110 1   
   110  109  117 1   
   111  110  111 1   
   112  110  113 1   
   113  110  118 1   
   114  111  112 2   
   115  111  123 1   
   116  113  114 1   
   117  113  119 1   
   118  113  120 1   
   119  114  115 1   
   120  114  116 2   
   121  115  121 1   
   122  115  122 1   
   123  123  124 1   
   124  123  135 1   
   125  124  125 1   
   126  124  127 1   
   127  124  136 1   
   128  125  126 2   
   129  125  144 1   
   130  127  128 1   
   131  127  137 1   
   132  127  138 1   
   133  128  129 ar  
   134  128  130 ar  
   135  129  131 ar  
   136  129  139 1   
   137  130  132 ar  
   138  130  140 1   
   139  131  133 ar  
   140  131  141 1   
   141  132  133 ar  
   142  132  142 1   
   143  133  134 1   
   144  134  143 1   
   145  144  145 1   
   146  144  153 1   
   147  145  146 1   
   148  145  148 1   
   149  145  154 1   
   150  146  147 2   
   151  146  159 1   
   152  148  149 1   
   153  148  155 1   
   154  148  156 1   
   155  149  150 1   
   156  149  157 1   
   157  149  158 1   
   158  150  151 1   
   159  150  152 1   
   160  159  160 1   
   161  159  168 1   
   162  160  161 1   
   163  160  163 1   
   164  160  169 1   
   165  161  162 2   
   166  161  174 1   
   167  163  164 1   
   168  163  170 1   
   169  163  171 1   
   170  164  165 1   
   171  164  172 1   
   172  164  173 1   
   173  165  166 1   
   174  165  167 1   
   175  174  175 1   
   176  174  179 1   
   177  175  176 1   
   178  175  177 1   
   179  175  178 1   
   180  181  182 1   
   181  181  183 1   
   182  184  185 1   
   183  184  186 1   
   184  187  188 1   
   185  187  189 1   
@<TRIPOS>SUBSTRUCTURE
     1 MOL         1 TEMP              0 ****  ****    0 ROOT
