@<TRIPOS>MOLECULE
MOL
  186   183     1     0     0
SMALL
resp


@<TRIPOS>ATOM
      1 C1         12.3830    6.8940   -2.2880 c3        1 MOL     -0.335287
      2 C2         12.5390    5.5610   -1.4910 c         1 MOL      0.580393
      3 O1         13.6350    5.0780   -1.3730 o         1 MOL     -0.550489
      4 H1         11.6120    6.7720   -3.0490 hc        1 MOL      0.093043
      5 H2         12.0960    7.6940   -1.6060 hc        1 MOL      0.093043
      6 H3         13.3290    7.1450   -2.7670 hc        1 MOL      0.093043
      7 N1         11.4540    4.8880   -0.9530 n         1 MOL     -0.042390
      8 C3         11.5220    3.6000   -0.2160 c3        1 MOL     -0.588543
      9 C4         10.5130    2.5120   -0.7620 c         1 MOL      0.505802
     10 O2          9.4270    2.8560   -1.1800 o         1 MOL     -0.588340
     11 C5         11.2180    3.8150    1.2940 c3        1 MOL      0.516241
     12 C6         10.1480    4.8390    1.6420 c         1 MOL      0.508293
     13 O3          9.2490    5.2190    0.7950 o         1 MOL     -0.661293
     14 O4         10.2560    5.4920    2.7160 o         1 MOL     -0.661293
     15 H4         10.5830    5.3900   -0.9580 hn        1 MOL      0.030812
     16 H5         12.4790    3.0850   -0.3150 h1        1 MOL      0.152662
     17 H6         12.1650    4.1830    1.6770 hc        1 MOL     -0.057490
     18 H7         11.1300    2.8540    1.7980 hc        1 MOL     -0.057490
     19 N2         10.9370    1.2460   -0.5910 n         1 MOL     -0.240740
     20 C7         10.4210   -0.0960   -1.0750 c3        1 MOL     -0.177273
     21 C8          8.9850   -0.5440   -0.5690 c         1 MOL      0.470050
     22 O5          8.6260   -1.6980   -0.6380 o         1 MOL     -0.519094
     23 C9         11.5140   -1.1210   -0.8200 c3        1 MOL     -0.149918
     24 C10        12.7850   -0.8330   -1.6520 c3        1 MOL      0.140581
     25 C11        13.8950   -1.8720   -1.5840 c3        1 MOL     -0.058197
     26 C12        13.5300   -3.2170   -2.0950 c3        1 MOL      0.112214
     27 N3         14.7060   -4.1050   -1.9490 n4        1 MOL     -0.383421
     28 H8         11.8220    1.1640   -0.1130 hn        1 MOL      0.262475
     29 H9         10.2570    0.0100   -2.1370 h1        1 MOL      0.136071
     30 H10        11.1090   -2.0530   -1.2310 hc        1 MOL      0.080224
     31 H11        11.8780   -1.1550    0.2050 hc        1 MOL      0.080224
     32 H12        13.1720    0.1470   -1.3780 hc        1 MOL     -0.020436
     33 H13        12.4420   -0.7290   -2.6780 hc        1 MOL     -0.020436
     34 H14        14.2760   -1.8940   -0.5670 hc        1 MOL      0.022892
     35 H15        14.6950   -1.5010   -2.2270 hc        1 MOL      0.022892
     36 H16        13.1680   -3.1410   -3.1270 hx        1 MOL      0.070881
     37 H17        12.6290   -3.5490   -1.5860 hx        1 MOL      0.070881
     38 H18        14.5810   -4.9850   -2.4200 hn        1 MOL      0.286107
     39 H19        15.4440   -3.6720   -2.4900 hn        1 MOL      0.286107
     40 H20        14.9590   -4.3320   -0.9950 hn        1 MOL      0.286107
     41 N4          8.3640    0.3920    0.0850 n         1 MOL      0.065515
     42 C13         7.0060    0.3300    0.6830 c3        1 MOL     -0.519460
     43 C14         5.9580    1.0870   -0.1860 c         1 MOL      0.733831
     44 O6          6.3460    1.9740   -0.9150 o         1 MOL     -0.685813
     45 C15         7.1360    0.6620    2.1780 c3        1 MOL     -0.127898
     46 C16         7.7350    2.0260    2.4660 c         1 MOL      0.463149
     47 O7          7.8870    2.2610    3.6840 o         1 MOL     -0.582297
     48 O8          8.0240    2.8530    1.5650 o         1 MOL     -0.582297
     49 H21         8.9440    1.1890    0.2810 hn        1 MOL      0.110007
     50 H22         6.6140   -0.6820    0.6110 h1        1 MOL      0.242847
     51 H23         7.6330   -0.1600    2.6850 hc        1 MOL      0.115925
     52 H24         6.1530    0.7690    2.6350 hc        1 MOL      0.115925
     53 N5          4.6970    0.7730    0.0010 n         1 MOL     -0.688150
     54 C17         4.0970   -0.1900    0.8930 c3        1 MOL      0.084981
     55 C18         4.0990   -1.6080    0.4360 c         1 MOL      0.616774
     56 O9          4.4330   -1.9170   -0.6900 o         1 MOL     -0.541460
     57 H25         4.0800    1.0040   -0.7610 hn        1 MOL      0.403434
     58 H26         3.0250    0.0230    0.8880 h1        1 MOL      0.050743
     59 H27         4.4990   -0.1550    1.9030 h1        1 MOL      0.050743
     60 N6          3.6950   -2.5190    1.2680 n         1 MOL     -0.574440
     61 C19         3.7540   -3.9920    1.0620 c3        1 MOL      0.042288
     62 C20         2.8380   -4.7790    2.0110 c         1 MOL      0.449065
     63 O10         2.5520   -4.2580    3.0850 o         1 MOL     -0.465570
     64 C21         5.2600   -4.3950    1.3070 c3        1 MOL     -0.148773
     65 C22         5.3840   -5.9460    1.2370 c         1 MOL      0.711580
     66 O11         5.7010   -6.3310    0.1230 o         1 MOL     -0.664922
     67 O12         5.3500   -6.7470    2.2160 o         1 MOL     -0.664922
     68 H28         3.4750   -2.3220    2.2320 hn        1 MOL      0.302207
     69 H29         3.4740   -4.1880    0.0290 h1        1 MOL      0.065094
     70 H30         5.6550   -4.0500    2.2740 hc        1 MOL      0.045500
     71 H31         5.8380   -3.9110    0.5220 hc        1 MOL      0.045500
     72 N7          2.3060   -5.9410    1.5260 n         1 MOL     -0.231648
     73 C23         1.1590   -6.5910    2.1150 c3        1 MOL     -0.232680
     74 C24        -0.2090   -5.9710    1.5710 c         1 MOL      0.565857
     75 O13        -1.2470   -6.0100    2.1880 o         1 MOL     -0.533407
     76 H32         2.6410   -6.3350    0.6650 hn        1 MOL      0.245021
     77 H33         1.1960   -6.3900    3.1880 h1        1 MOL      0.124045
     78 H34         1.1540   -7.6730    2.0250 h1        1 MOL      0.124045
     79 N8         -0.1070   -5.4390    0.3820 n         1 MOL     -0.406224
     80 C25        -1.0910   -4.6360   -0.3670 c3        1 MOL     -0.084290
     81 C26        -1.6590   -3.4300    0.4090 c         1 MOL      0.591062
     82 O14        -1.0550   -2.9740    1.4210 o         1 MOL     -0.485824
     83 C27        -0.5230   -4.1720   -1.7280 c3        1 MOL      0.243771
     84 C28         0.7730   -3.2540   -1.6210 c3        1 MOL     -0.136156
     85 O15        -0.2330   -5.3750   -2.4770 oh        1 MOL     -0.619415
     86 H35         0.8480   -5.3570    0.0570 hn        1 MOL      0.262038
     87 H36        -1.9180   -5.2830   -0.6700 h1        1 MOL      0.073393
     88 H37        -1.2960   -3.5610   -2.2010 h1        1 MOL      0.028513
     89 H38        -0.9970   -5.9130   -2.6960 ho        1 MOL      0.398970
     90 H39         0.5580   -2.4240   -0.9430 hc        1 MOL      0.056067
     91 H40         1.6750   -3.7860   -1.3010 hc        1 MOL      0.056067
     92 H41         0.8360   -2.6920   -2.5570 hc        1 MOL      0.056067
     93 N9         -2.7730   -2.9250   -0.1210 n         1 MOL     -0.503705
     94 C29        -3.4190   -1.6840    0.3620 c3        1 MOL      0.205626
     95 C30        -4.8810   -1.8510    0.7200 c         1 MOL      0.379495
     96 O16        -5.4030   -1.0220    1.5330 o         1 MOL     -0.483987
     97 C31        -3.1160   -0.5670   -0.5910 c3        1 MOL     -0.014092
     98 C32        -3.7890   -0.8330   -1.9930 c3        1 MOL      0.177513
     99 C33        -1.5940   -0.1910   -0.6600 c3        1 MOL     -0.122573
    100 C34        -3.2310    0.0140   -3.1380 c3        1 MOL     -0.540507
    101 H42        -3.0770   -3.1820   -1.0590 hn        1 MOL      0.217924
    102 H43        -2.9510   -1.3960    1.2990 h1        1 MOL      0.065442
    103 H44        -3.5880    0.2210   -0.0070 hc        1 MOL      0.026721
    104 H45        -4.8610   -1.0300   -2.0240 hc        1 MOL     -0.006932
    105 H46        -3.3950   -1.8150   -2.2490 hc        1 MOL     -0.006932
    106 H47        -0.9170   -0.8370   -1.2330 hc        1 MOL      0.037302
    107 H48        -1.5410    0.8320   -1.0470 hc        1 MOL      0.037302
    108 H49        -1.2130   -0.2140    0.3560 hc        1 MOL      0.037302
    109 H50        -4.0460    0.0740   -3.8690 hc        1 MOL      0.138880
    110 H51        -3.0050    1.0460   -2.8760 hc        1 MOL      0.138880
    111 H52        -2.3520   -0.5550   -3.4400 hc        1 MOL      0.138880
    112 N10        -5.6070   -2.7810    0.1040 n         1 MOL     -0.379183
    113 C35        -7.0170   -3.0890    0.3600 c3        1 MOL     -0.107864
    114 C36        -7.8380   -2.7850   -0.8750 c         1 MOL      0.757752
    115 O17        -7.5040   -3.1450   -1.9920 o         1 MOL     -0.574000
    116 C37        -7.0950   -4.5730    0.7810 c3        1 MOL      0.282871
    117 C38        -6.3170   -4.8890    2.0430 c3        1 MOL     -0.256060
    118 O18        -8.4490   -4.9490    0.9500 oh        1 MOL     -0.649631
    119 H53        -5.1540   -3.3170   -0.6200 hn        1 MOL      0.227924
    120 H54        -7.4420   -2.6120    1.2440 h1        1 MOL      0.136445
    121 H55        -6.7060   -5.2050   -0.0210 h1        1 MOL      0.014507
    122 H56        -8.4520   -5.7050    1.5490 ho        1 MOL      0.404541
    123 H57        -5.2530   -4.9380    1.7970 hc        1 MOL      0.083895
    124 H58        -6.4660   -4.1380    2.8240 hc        1 MOL      0.083895
    125 H59        -6.6000   -5.8130    2.5500 hc        1 MOL      0.083895
    126 N11        -8.9930   -2.1460   -0.7070 n         1 MOL     -0.588402
    127 C39        -9.8870   -1.7470   -1.8610 c3        1 MOL     -0.003535
    128 C40       -10.2120   -0.2800   -1.8940 c         1 MOL      0.707815
    129 O19       -10.1630    0.3760   -2.8970 o         1 MOL     -0.577137
    130 C41       -11.2450   -2.5530   -1.8750 c3        1 MOL      0.313817
    131 C42       -12.2360   -2.3000   -3.0350 c3        1 MOL     -0.410932
    132 O20       -11.8900   -2.3290   -0.6670 oh        1 MOL     -0.639612
    133 H60        -9.2670   -1.8770    0.2210 hn        1 MOL      0.289843
    134 H61        -9.3090   -1.9030   -2.7800 h1        1 MOL      0.100137
    135 H62       -10.9700   -3.6080   -1.8380 h1        1 MOL      0.034200
    136 H63       -11.9940   -3.2000   -0.2720 ho        1 MOL      0.414845
    137 H64       -11.6410   -2.4440   -3.9290 hc        1 MOL      0.109349
    138 H65       -13.0400   -3.0120   -2.8640 hc        1 MOL      0.109349
    139 H66       -12.6930   -1.3000   -2.9690 hc        1 MOL      0.109349
    140 N12       -10.5220    0.3710   -0.7320 n         1 MOL     -0.562822
    141 C43       -10.6370    1.7710   -0.5720 c3        1 MOL      0.247610
    142 C44        -9.6050    2.2170    0.3780 c         1 MOL      0.452380
    143 O21        -8.9300    1.4100    1.0870 o         1 MOL     -0.495810
    144 C45       -12.0300    2.1930   -0.1220 c3        1 MOL     -0.284350
    145 C46       -13.0730    1.8940   -1.3040 c3        1 MOL      0.125684
    146 C47       -14.2350    2.8940   -1.1220 c3        1 MOL     -0.141038
    147 C48       -15.0240    2.8500    0.2400 c3        1 MOL     -0.035631
    148 N13       -15.7010    1.5500    0.3340 n4        1 MOL     -0.267524
    149 H67       -10.8690   -0.1740    0.0500 hn        1 MOL      0.294372
    150 H68       -10.4170    2.2390   -1.5230 h1        1 MOL      0.087817
    151 H69       -12.0110    3.2460    0.1640 hc        1 MOL      0.078316
    152 H70       -12.4250    1.7050    0.7710 hc        1 MOL      0.078316
    153 H71       -13.5140    0.8980   -1.1930 hc        1 MOL      0.004622
    154 H72       -12.6430    2.0130   -2.2930 hc        1 MOL      0.004622
    155 H73       -15.0190    2.7190   -1.8670 hc        1 MOL      0.070134
    156 H74       -13.8010    3.8930   -1.1550 hc        1 MOL      0.070134
    157 H75       -15.7030    3.7080    0.2420 hx        1 MOL      0.111429
    158 H76       -14.2750    3.0750    0.9970 hx        1 MOL      0.111429
    159 H77       -16.4940    1.5860    0.9570 hn        1 MOL      0.255615
    160 H78       -16.0980    1.1510   -0.5000 hn        1 MOL      0.255615
    161 H79       -15.0370    0.9030    0.7500 hn        1 MOL      0.255615
    162 N14        -9.3840    3.5500    0.4670 n         1 MOL     -0.497150
    163 C49        -8.3990    4.2570    1.2590 c3        1 MOL      0.277496
    164 C50        -6.8860    3.7480    0.9450 c         1 MOL      0.330376
    165 O22        -6.2320    3.3450    1.9090 o         1 MOL     -0.505531
    166 C51        -8.5330    5.7680    0.9820 c3        1 MOL      0.030904
    167 C52        -9.5570    6.3140    1.9830 c3        1 MOL     -0.268616
    168 C53        -9.9120    7.7470    1.6400 c         1 MOL      0.665998
    169 O23       -10.7760    8.0010    0.7790 o         1 MOL     -0.651162
    170 O24        -9.2380    8.7010    2.1710 o         1 MOL     -0.651162
    171 H80       -10.0070    4.1160   -0.0940 hn        1 MOL      0.228456
    172 H81        -8.5440    4.2100    2.3440 h1        1 MOL      0.022467
    173 H82        -8.9060    5.8770   -0.0380 hc        1 MOL      0.040567
    174 H83        -7.5430    6.2110    1.1020 hc        1 MOL      0.040567
    175 H84        -9.0770    6.3900    2.9570 hc        1 MOL      0.054446
    176 H85       -10.4430    5.6950    2.0050 hc        1 MOL      0.054446
    177 N15        -6.3260    3.7670   -0.2810 n         1 MOL     -0.271683
    178 C54        -6.7300    4.4950   -1.4060 c3        1 MOL     -0.019387
    179 H86        -7.3950    3.8830   -2.0140 h1        1 MOL      0.032132
    180 H87        -7.2540    5.3960   -1.0870 h1        1 MOL      0.032132
    181 H88        -5.8550    4.7720   -1.9930 h1        1 MOL      0.032132
    182 H89        -5.4210    3.3400   -0.2360 hn        1 MOL      0.260060
    183 Ca1         7.1910    4.2780   -0.4330 Ca        1 MOL      1.675658
    184 O25         4.5720    4.2350   -1.5280 oh        1 MOL     -0.743839
    185 H90         4.3690    3.9710   -0.6290 ho        1 MOL      0.380126
    186 H91         3.8210    3.9180   -2.0370 ho        1 MOL      0.380126
@<TRIPOS>BOND
     1    1    2 1   
     2    1    4 1   
     3    1    5 1   
     4    1    6 1   
     5    2    3 2   
     6    2    7 1   
     7    7    8 1   
     8    7   15 1   
     9    8    9 1   
    10    8   11 1   
    11    8   16 1   
    12    9   10 2   
    13    9   19 1   
    14   11   12 1   
    15   11   17 1   
    16   11   18 1   
    17   12   13 1   
    18   12   14 1   
    19   19   20 1   
    20   19   28 1   
    21   20   21 1   
    22   20   23 1   
    23   20   29 1   
    24   21   22 2   
    25   21   41 1   
    26   23   24 1   
    27   23   30 1   
    28   23   31 1   
    29   24   25 1   
    30   24   32 1   
    31   24   33 1   
    32   25   26 1   
    33   25   34 1   
    34   25   35 1   
    35   26   27 1   
    36   26   36 1   
    37   26   37 1   
    38   27   38 1   
    39   27   39 1   
    40   27   40 1   
    41   41   42 1   
    42   41   49 1   
    43   42   43 1   
    44   42   45 1   
    45   42   50 1   
    46   43   44 2   
    47   43   53 1   
    48   45   46 1   
    49   45   51 1   
    50   45   52 1   
    51   46   47 1   
    52   46   48 1   
    53   53   54 1   
    54   53   57 1   
    55   54   55 1   
    56   54   58 1   
    57   54   59 1   
    58   55   56 2   
    59   55   60 1   
    60   60   61 1   
    61   60   68 1   
    62   61   62 1   
    63   61   64 1   
    64   61   69 1   
    65   62   63 2   
    66   62   72 1   
    67   64   65 1   
    68   64   70 1   
    69   64   71 1   
    70   65   66 1   
    71   65   67 1   
    72   72   73 1   
    73   72   76 1   
    74   73   74 1   
    75   73   77 1   
    76   73   78 1   
    77   74   75 2   
    78   74   79 1   
    79   79   80 1   
    80   79   86 1   
    81   80   81 1   
    82   80   83 1   
    83   80   87 1   
    84   81   82 2   
    85   81   93 1   
    86   83   84 1   
    87   83   85 1   
    88   83   88 1   
    89   84   90 1   
    90   84   91 1   
    91   84   92 1   
    92   85   89 1   
    93   93   94 1   
    94   93  101 1   
    95   94   95 1   
    96   94   97 1   
    97   94  102 1   
    98   95   96 2   
    99   95  112 1   
   100   97   98 1   
   101   97   99 1   
   102   97  103 1   
   103   98  100 1   
   104   98  104 1   
   105   98  105 1   
   106   99  106 1   
   107   99  107 1   
   108   99  108 1   
   109  100  109 1   
   110  100  110 1   
   111  100  111 1   
   112  112  113 1   
   113  112  119 1   
   114  113  114 1   
   115  113  116 1   
   116  113  120 1   
   117  114  115 2   
   118  114  126 1   
   119  116  117 1   
   120  116  118 1   
   121  116  121 1   
   122  117  123 1   
   123  117  124 1   
   124  117  125 1   
   125  118  122 1   
   126  126  127 1   
   127  126  133 1   
   128  127  128 1   
   129  127  130 1   
   130  127  134 1   
   131  128  129 2   
   132  128  140 1   
   133  130  131 1   
   134  130  132 1   
   135  130  135 1   
   136  131  137 1   
   137  131  138 1   
   138  131  139 1   
   139  132  136 1   
   140  140  141 1   
   141  140  149 1   
   142  141  142 1   
   143  141  144 1   
   144  141  150 1   
   145  142  143 2   
   146  142  162 1   
   147  144  145 1   
   148  144  151 1   
   149  144  152 1   
   150  145  146 1   
   151  145  153 1   
   152  145  154 1   
   153  146  147 1   
   154  146  155 1   
   155  146  156 1   
   156  147  148 1   
   157  147  157 1   
   158  147  158 1   
   159  148  159 1   
   160  148  160 1   
   161  148  161 1   
   162  162  163 1   
   163  162  171 1   
   164  163  164 1   
   165  163  166 1   
   166  163  172 1   
   167  164  165 2   
   168  164  177 1   
   169  166  167 1   
   170  166  173 1   
   171  166  174 1   
   172  167  168 1   
   173  167  175 1   
   174  167  176 1   
   175  168  169 1   
   176  168  170 1   
   177  177  178 1   
   178  177  182 1   
   179  178  179 1   
   180  178  180 1   
   181  178  181 1   
   182  184  185 1   
   183  184  186 1   
@<TRIPOS>SUBSTRUCTURE
     1 MOL         1 TEMP              0 ****  ****    0 ROOT
