@<TRIPOS>MOLECULE
MOL
  186   183     1     0     0
SMALL
resp


@<TRIPOS>ATOM
      1 C1          5.2850   -5.5330    2.2660 c3        1 MOL     -0.440218
      2 C2          5.6610   -4.2650    1.4780 c         1 MOL      0.863225
      3 O1          4.8250   -3.6800    0.8730 o         1 MOL     -0.626349
      4 H1          4.3900   -5.9790    1.8310 hc        1 MOL      0.115339
      5 H2          6.1060   -6.2490    2.2170 hc        1 MOL      0.115339
      6 H3          5.0920   -5.2720    3.3070 hc        1 MOL      0.115339
      7 N1          6.9670   -3.7860    1.4820 n         1 MOL     -0.833428
      8 C3          7.4570   -2.5650    0.8350 c3        1 MOL      0.303867
      9 C4          6.5230   -1.3580    1.1670 c         1 MOL      0.326826
     10 O2          5.7680   -0.9590    0.2880 o         1 MOL     -0.582403
     11 C5          7.8850   -2.7370   -0.6660 c3        1 MOL     -0.118658
     12 C6          7.0670   -3.6190   -1.5040 c         1 MOL      0.816455
     13 O3          5.9380   -3.2160   -1.8210 o         1 MOL     -0.753424
     14 O4          7.6220   -4.6190   -1.9470 o         1 MOL     -0.753424
     15 H4          7.6220   -4.5030    1.7690 hn        1 MOL      0.363275
     16 H5          8.3780   -2.2690    1.3270 h1        1 MOL     -0.013466
     17 H6          8.8730   -3.1870   -0.7160 hc        1 MOL      0.010710
     18 H7          7.8670   -1.7010   -1.0100 hc        1 MOL      0.010710
     19 N2          6.3890   -1.0050    2.4320 n         1 MOL     -0.210993
     20 C7          5.7640    0.1860    2.9440 c3        1 MOL     -0.029671
     21 C8          6.3070    1.4830    2.3040 c         1 MOL      0.334774
     22 O5          6.9180    2.2790    3.0890 o         1 MOL     -0.557044
     23 C9          4.2670    0.0400    3.1080 c3        1 MOL      0.104839
     24 C10         3.6720    1.1570    3.9880 c3        1 MOL     -0.176272
     25 C11         3.8910   -1.3860    3.4800 c3        1 MOL     -0.127261
     26 C12         2.1200    1.2510    4.0920 c3        1 MOL     -0.344538
     27 H8          6.9160   -1.5860    3.0650 hn        1 MOL      0.228921
     28 H9          6.1700    0.2250    3.9550 h1        1 MOL      0.061009
     29 H10         3.8280    0.2810    2.1360 hc        1 MOL      0.030800
     30 H11         3.9230    2.0640    3.4460 hc        1 MOL      0.062929
     31 H12         4.1120    1.0740    4.9850 hc        1 MOL      0.062929
     32 H13         4.1440   -2.1450    2.7370 hc        1 MOL      0.020186
     33 H14         4.3340   -1.7790    4.3960 hc        1 MOL      0.020186
     34 H15         2.8030   -1.3410    3.5800 hc        1 MOL      0.020186
     35 H16         1.7610    0.4190    4.6950 hc        1 MOL      0.125716
     36 H17         1.8100    2.2540    4.4020 hc        1 MOL      0.125716
     37 H18         1.8730    1.2350    3.0320 hc        1 MOL      0.125716
     38 N3          6.2500    1.7630    1.0120 n         1 MOL     -0.197706
     39 C13         7.0180    2.8220    0.3180 c3        1 MOL      0.050153
     40 C14         6.2810    4.1790    0.2780 c         1 MOL      0.504315
     41 O6          6.7980    5.2510    0.6500 o         1 MOL     -0.545380
     42 C15         7.5320    2.3190   -1.0710 c3        1 MOL     -0.060620
     43 C16         8.3690    3.3200   -1.7740 c         1 MOL      0.670024
     44 O7          8.8930    4.2610   -1.1110 o         1 MOL     -0.711359
     45 O8          8.6600    3.1210   -2.9760 o         1 MOL     -0.711359
     46 H19         5.8530    1.0400    0.4370 hn        1 MOL      0.257900
     47 H20         7.8870    2.9700    0.9700 h1        1 MOL      0.065536
     48 H21         6.7270    2.1430   -1.7890 hc        1 MOL      0.020293
     49 H22         8.1910    1.4650   -1.0370 hc        1 MOL      0.020293
     50 N4          5.0430    4.3100   -0.2080 n         1 MOL     -0.535714
     51 C17         4.1300    3.2560   -0.7240 c3        1 MOL      0.071232
     52 C18         2.9870    3.8360   -1.5790 c         1 MOL      0.473215
     53 O9          2.6430    4.9870   -1.2780 o         1 MOL     -0.564282
     54 H23         4.7710    5.2810   -0.2560 hn        1 MOL      0.309876
     55 H24         3.6540    2.8430    0.1580 h1        1 MOL      0.140119
     56 H25         4.6890    2.5010   -1.2810 h1        1 MOL      0.140119
     57 N5          2.5060    3.0910   -2.5760 n         1 MOL     -0.381519
     58 C19         2.5540    1.6550   -2.8180 c3        1 MOL      0.086974
     59 C20         2.4280    0.8250   -1.5050 c         1 MOL      0.069585
     60 O10         3.4080    0.2740   -0.9310 o         1 MOL     -0.594995
     61 C21         3.7260    1.2550   -3.6150 c3        1 MOL     -0.329663
     62 C22         3.6410   -0.2370   -3.9430 c         1 MOL      0.862771
     63 O11         3.0700   -0.6190   -4.9870 o         1 MOL     -0.737669
     64 O12         4.2740   -1.0460   -3.2010 o         1 MOL     -0.737669
     65 H26         1.8010    3.6520   -3.0310 hn        1 MOL      0.250968
     66 H27         1.7630    1.4660   -3.5520 h1        1 MOL      0.119897
     67 H28         4.7020    1.3280   -3.1380 hc        1 MOL      0.073713
     68 H29         3.6770    1.8250   -4.5540 hc        1 MOL      0.073713
     69 N6          1.2280    0.6100   -1.0510 n         1 MOL      0.092729
     70 C23        -0.0280    1.3270   -1.2790 c3        1 MOL     -0.364065
     71 C24        -0.2120    2.6790   -0.4390 c         1 MOL      0.494952
     72 O13         0.6960    3.1010    0.2450 o         1 MOL     -0.470845
     73 H30         1.1900   -0.0470   -0.2770 hn        1 MOL      0.195816
     74 H31        -0.8840    0.7530   -0.9100 h1        1 MOL      0.125517
     75 H32        -0.0370    1.7020   -2.2910 h1        1 MOL      0.125517
     76 N7         -1.4240    3.2500   -0.5320 n         1 MOL     -0.423318
     77 C25        -1.7160    4.4950    0.1520 c3        1 MOL      0.050805
     78 C26        -2.2430    4.3960    1.5490 c         1 MOL      0.330355
     79 O14        -2.2930    5.4090    2.2640 o         1 MOL     -0.505224
     80 C27        -2.7160    5.3640   -0.6230 c3        1 MOL      0.080014
     81 C28        -2.3400    5.8210   -2.0650 c3        1 MOL     -0.286398
     82 C29        -1.2460    6.8750   -2.1760 c         1 MOL      0.707083
     83 N8         -0.0130    6.7110   -1.7060 n         1 MOL     -0.834447
     84 O15        -1.4910    8.0000   -2.6780 o         1 MOL     -0.591734
     85 H33        -2.0620    2.7950   -1.1640 hn        1 MOL      0.302946
     86 H34        -0.7970    5.0790    0.1520 h1        1 MOL      0.069235
     87 H35        -2.8780    6.2650   -0.0320 hc        1 MOL      0.018928
     88 H36        -3.5670    4.6770   -0.6040 hc        1 MOL      0.018928
     89 H37        -3.2920    6.2230   -2.4030 hc        1 MOL      0.061880
     90 H38        -2.1750    4.8820   -2.5870 hc        1 MOL      0.061880
     91 H39         0.2410    5.7890   -1.3820 hn        1 MOL      0.408882
     92 H40         0.5900    7.5010   -1.5700 hn        1 MOL      0.408882
     93 N9         -2.7140    3.2390    2.0330 n         1 MOL     -0.131702
     94 C30        -3.2600    2.9710    3.4030 c3        1 MOL     -0.212601
     95 C31        -4.7120    2.4750    3.3060 c         1 MOL      0.523384
     96 O16        -5.3780    2.4500    4.3150 o         1 MOL     -0.563593
     97 C32        -2.4020    2.0490    4.2760 c3        1 MOL      0.394576
     98 C33        -1.0030    2.5280    4.5220 c3        1 MOL     -0.351596
     99 C34        -2.1970    0.6270    3.6060 c3        1 MOL     -0.351596
    100 H41        -2.5740    2.4220    1.4650 hn        1 MOL      0.231338
    101 H42        -3.3040    3.8560    4.0280 h1        1 MOL      0.127626
    102 H43        -2.9000    1.9440    5.2360 hc        1 MOL     -0.033183
    103 H44        -0.5090    2.6630    3.5670 hc        1 MOL      0.074313
    104 H45        -1.1440    3.5360    4.9130 hc        1 MOL      0.074313
    105 H46        -0.4150    1.8190    5.1060 hc        1 MOL      0.074313
    106 H47        -1.5830    0.7920    2.7080 hc        1 MOL      0.074313
    107 H48        -1.6610   -0.0640    4.2500 hc        1 MOL      0.074313
    108 H49        -3.2010    0.3230    3.3280 hc        1 MOL      0.074313
    109 N10        -5.2170    2.1470    2.1410 n         1 MOL     -0.375270
    110 C35        -6.5690    1.5090    1.9510 c3        1 MOL      0.357583
    111 C36        -6.4930    0.0260    1.5570 c         1 MOL      0.361779
    112 O17        -6.9340   -0.8050    2.4230 o         1 MOL     -0.528133
    113 C37        -7.4970    2.3420    1.0600 c3        1 MOL     -0.227420
    114 C38        -6.8980    2.6660   -0.3520 c         1 MOL      0.577619
    115 N11        -7.5240    3.5240   -1.1110 n         1 MOL     -0.770456
    116 O18        -5.8380    2.1960   -0.7140 o         1 MOL     -0.510131
    117 H50        -4.5480    2.2500    1.3860 hn        1 MOL      0.118437
    118 H51        -7.1560    1.4510    2.8660 h1        1 MOL      0.018808
    119 H52        -7.5990    3.3010    1.5590 hc        1 MOL      0.061789
    120 H53        -8.5120    1.9490    0.9700 hc        1 MOL      0.061789
    121 H54        -8.4260    3.9140   -0.8620 hn        1 MOL      0.379814
    122 H55        -7.1340    3.7120   -2.0220 hn        1 MOL      0.379814
    123 N12        -5.8420   -0.3540    0.4480 n         1 MOL     -0.433407
    124 C39        -6.0510   -1.6480   -0.2540 c3        1 MOL      0.193712
    125 C40        -4.7910   -2.5080   -0.4840 c         1 MOL      0.700009
    126 O19        -3.6900   -1.9930   -0.3690 o         1 MOL     -0.602082
    127 C41        -6.8990   -1.4380   -1.5190 c3        1 MOL     -0.127358
    128 C42        -8.1450   -0.5810   -1.3160 ca        1 MOL      0.030197
    129 C43        -9.0030   -0.7190   -0.1770 ca        1 MOL     -0.166985
    130 C44        -8.3890    0.4510   -2.2130 ca        1 MOL     -0.166985
    131 C45       -10.1460    0.0670   -0.0670 ca        1 MOL     -0.244051
    132 C46        -9.4590    1.3620   -2.0610 ca        1 MOL     -0.244051
    133 C47       -10.3540    1.1420   -0.9650 ca        1 MOL      0.295376
    134 O20       -11.3820    1.9970   -0.9100 oh        1 MOL     -0.506530
    135 H56        -5.4090    0.3700   -0.1030 hn        1 MOL      0.282057
    136 H57        -6.7110   -2.2060    0.4050 h1        1 MOL     -0.009709
    137 H58        -7.1240   -2.3790   -2.0160 hc        1 MOL      0.079202
    138 H59        -6.2350   -1.0060   -2.2580 hc        1 MOL      0.079202
    139 H60        -8.7570   -1.4490    0.5870 ha        1 MOL      0.147014
    140 H61        -7.7210    0.7300   -3.0080 ha        1 MOL      0.147014
    141 H62       -10.8720   -0.0330    0.7280 ha        1 MOL      0.132108
    142 H63        -9.6260    2.1080   -2.8240 ha        1 MOL      0.132108
    143 H64       -12.0230    1.6350   -0.3020 ho        1 MOL      0.368035
    144 N13        -5.0510   -3.7590   -0.7600 n         1 MOL     -0.708872
    145 C48        -3.9870   -4.7080   -1.2360 c3        1 MOL     -0.056173
    146 C49        -2.7660   -4.9540   -0.3120 c         1 MOL      0.242266
    147 O21        -2.0340   -5.9300   -0.4710 o         1 MOL     -0.496215
    148 C50        -3.4770   -4.5580   -2.6240 c3        1 MOL      0.558585
    149 C51        -4.5470   -4.0310   -3.5180 c3        1 MOL     -0.512605
    150 C52        -4.2290   -4.3320   -4.9550 c         1 MOL      0.791521
    151 O22        -4.9500   -3.7480   -5.8390 o         1 MOL     -0.751118
    152 O23        -3.3240   -5.1060   -5.3040 o         1 MOL     -0.751118
    153 H65        -5.9840   -4.1020   -0.9480 hn        1 MOL      0.363887
    154 H66        -4.3920   -5.7190   -1.2590 h1        1 MOL      0.090316
    155 H67        -3.2040   -5.5570   -2.9520 hc        1 MOL     -0.061447
    156 H68        -2.5090   -4.0450   -2.6960 hc        1 MOL     -0.061447
    157 H69        -4.6770   -2.9630   -3.3620 hc        1 MOL      0.054586
    158 H70        -5.4990   -4.5270   -3.3020 hc        1 MOL      0.054586
    159 N14        -2.4970   -4.1500    0.7000 n         1 MOL     -0.051734
    160 C53        -1.4810   -4.3330    1.6600 c3        1 MOL     -0.210072
    161 C54        -1.8280   -5.3330    2.7370 c         1 MOL      0.484532
    162 O24        -1.0470   -6.1920    3.0910 o         1 MOL     -0.553983
    163 C55        -1.0830   -2.9970    2.2960 c3        1 MOL      0.123451
    164 C56        -0.6060   -1.8810    1.4180 c3        1 MOL      0.251857
    165 C57         0.4540   -2.1810    0.3680 c         1 MOL      0.440805
    166 O25         1.6530   -1.8410    0.4890 o         1 MOL     -0.591882
    167 O26         0.0200   -2.6160   -0.7350 o         1 MOL     -0.591882
    168 H71        -3.0440   -3.3040    0.8010 hn        1 MOL      0.200620
    169 H72        -0.6180   -4.7420    1.1500 h1        1 MOL      0.163648
    170 H73        -0.2410   -3.2060    2.9520 hc        1 MOL     -0.055547
    171 H74        -1.9070   -2.6740    2.9310 hc        1 MOL     -0.055547
    172 H75        -0.0870   -1.1760    2.0690 hc        1 MOL     -0.068743
    173 H76        -1.5130   -1.3500    1.0970 hc        1 MOL     -0.068743
    174 N15        -2.9900   -5.2340    3.3300 n         1 MOL     -0.172930
    175 C58        -3.5110   -5.9070    4.5370 c3        1 MOL     -0.182696
    176 H77        -4.4650   -6.3800    4.3050 h1        1 MOL      0.081795
    177 H78        -2.8010   -6.6660    4.8660 h1        1 MOL      0.081795
    178 H79        -3.6530   -5.1730    5.3300 h1        1 MOL      0.081795
    179 H80        -3.6400   -4.7230    2.7490 hn        1 MOL      0.167421
    180 Ca1         3.8140   -2.2030   -0.9860 Ca        1 MOL      1.761343
    181 O27         1.8330   -2.6280   -2.7320 oh        1 MOL     -0.891570
    182 H81         0.9200   -2.6740   -2.4620 ho        1 MOL      0.423185
    183 H82         1.8340   -2.9450   -3.6350 ho        1 MOL      0.423185
    184 O28         3.4880   -4.7170   -1.4090 oh        1 MOL     -0.891570
    185 H83         3.7950   -5.5950   -1.1960 ho        1 MOL      0.423185
    186 H84         3.1800   -4.7820   -2.3160 ho        1 MOL      0.423185
@<TRIPOS>BOND
     1    1    2 1   
     2    1    4 1   
     3    1    5 1   
     4    1    6 1   
     5    2    3 2   
     6    2    7 1   
     7    7    8 1   
     8    7   15 1   
     9    8    9 1   
    10    8   11 1   
    11    8   16 1   
    12    9   10 2   
    13    9   19 1   
    14   11   12 1   
    15   11   17 1   
    16   11   18 1   
    17   12   13 1   
    18   12   14 1   
    19   19   20 1   
    20   19   27 1   
    21   20   21 1   
    22   20   23 1   
    23   20   28 1   
    24   21   22 2   
    25   21   38 1   
    26   23   24 1   
    27   23   25 1   
    28   23   29 1   
    29   24   26 1   
    30   24   30 1   
    31   24   31 1   
    32   25   32 1   
    33   25   33 1   
    34   25   34 1   
    35   26   35 1   
    36   26   36 1   
    37   26   37 1   
    38   38   39 1   
    39   38   46 1   
    40   39   40 1   
    41   39   42 1   
    42   39   47 1   
    43   40   41 2   
    44   40   50 1   
    45   42   43 1   
    46   42   48 1   
    47   42   49 1   
    48   43   44 1   
    49   43   45 1   
    50   50   51 1   
    51   50   54 1   
    52   51   52 1   
    53   51   55 1   
    54   51   56 1   
    55   52   53 2   
    56   52   57 1   
    57   57   58 1   
    58   57   65 1   
    59   58   59 1   
    60   58   61 1   
    61   58   66 1   
    62   59   60 2   
    63   59   69 1   
    64   61   62 1   
    65   61   67 1   
    66   61   68 1   
    67   62   63 1   
    68   62   64 1   
    69   69   70 1   
    70   69   73 1   
    71   70   71 1   
    72   70   74 1   
    73   70   75 1   
    74   71   72 2   
    75   71   76 1   
    76   76   77 1   
    77   76   85 1   
    78   77   78 1   
    79   77   80 1   
    80   77   86 1   
    81   78   79 2   
    82   78   93 1   
    83   80   81 1   
    84   80   87 1   
    85   80   88 1   
    86   81   82 1   
    87   81   89 1   
    88   81   90 1   
    89   82   83 1   
    90   82   84 2   
    91   83   91 1   
    92   83   92 1   
    93   93   94 1   
    94   93  100 1   
    95   94   95 1   
    96   94   97 1   
    97   94  101 1   
    98   95   96 2   
    99   95  109 1   
   100   97   98 1   
   101   97   99 1   
   102   97  102 1   
   103   98  103 1   
   104   98  104 1   
   105   98  105 1   
   106   99  106 1   
   107   99  107 1   
   108   99  108 1   
   109  109  110 1   
   110  109  117 1   
   111  110  111 1   
   112  110  113 1   
   113  110  118 1   
   114  111  112 2   
   115  111  123 1   
   116  113  114 1   
   117  113  119 1   
   118  113  120 1   
   119  114  115 1   
   120  114  116 2   
   121  115  121 1   
   122  115  122 1   
   123  123  124 1   
   124  123  135 1   
   125  124  125 1   
   126  124  127 1   
   127  124  136 1   
   128  125  126 2   
   129  125  144 1   
   130  127  128 1   
   131  127  137 1   
   132  127  138 1   
   133  128  129 ar  
   134  128  130 ar  
   135  129  131 ar  
   136  129  139 1   
   137  130  132 ar  
   138  130  140 1   
   139  131  133 ar  
   140  131  141 1   
   141  132  133 ar  
   142  132  142 1   
   143  133  134 1   
   144  134  143 1   
   145  144  145 1   
   146  144  153 1   
   147  145  146 1   
   148  145  148 1   
   149  145  154 1   
   150  146  147 2   
   151  146  159 1   
   152  148  149 1   
   153  148  155 1   
   154  148  156 1   
   155  149  150 1   
   156  149  157 1   
   157  149  158 1   
   158  150  151 1   
   159  150  152 1   
   160  159  160 1   
   161  159  168 1   
   162  160  161 1   
   163  160  163 1   
   164  160  169 1   
   165  161  162 2   
   166  161  174 1   
   167  163  164 1   
   168  163  170 1   
   169  163  171 1   
   170  164  165 1   
   171  164  172 1   
   172  164  173 1   
   173  165  166 1   
   174  165  167 1   
   175  174  175 1   
   176  174  179 1   
   177  175  176 1   
   178  175  177 1   
   179  175  178 1   
   180  181  182 1   
   181  181  183 1   
   182  184  185 1   
   183  184  186 1   
@<TRIPOS>SUBSTRUCTURE
     1 MOL         1 TEMP              0 ****  ****    0 ROOT
