@<TRIPOS>MOLECULE
MOL
  189   185     1     0     0
SMALL
resp


@<TRIPOS>ATOM
      1 C1         12.1170    5.8420   -3.2540 c3        1 MOL     -0.217244
      2 C2         11.8980    4.6620   -2.3640 c         1 MOL      0.618514
      3 O1         12.8280    3.9630   -1.9720 o         1 MOL     -0.573972
      4 H1         13.1100    6.2540   -3.0730 hc        1 MOL      0.060200
      5 H2         12.0370    5.5320   -4.2960 hc        1 MOL      0.060200
      6 H3         11.3650    6.6030   -3.0410 hc        1 MOL      0.060200
      7 N1         10.6470    4.4120   -1.9040 n         1 MOL     -0.114729
      8 C3         10.2920    3.2380   -0.9840 c3        1 MOL     -0.359521
      9 C4          8.7180    2.8190   -1.0950 c         1 MOL      0.400458
     10 O2          7.8920    3.5710   -1.6090 o         1 MOL     -0.515980
     11 C5         10.5780    3.6200    0.5040 c3        1 MOL     -0.067069
     12 C6         10.0610    5.0010    0.7600 c         1 MOL      0.648739
     13 O3          8.8520    5.2960    0.3870 o         1 MOL     -0.653163
     14 O4         10.8550    5.8360    1.2290 o         1 MOL     -0.653163
     15 H4          9.8940    5.0550   -2.1240 hn        1 MOL      0.076815
     16 H5         10.8830    2.3890   -1.3310 h1        1 MOL      0.159779
     17 H6         11.6520    3.4940    0.5890 hc        1 MOL      0.069191
     18 H7         10.1360    2.9060    1.2000 hc        1 MOL      0.069191
     19 N2          8.3970    1.6000   -0.5870 n         1 MOL     -0.391254
     20 C7          7.1300    0.8850   -0.7170 c3        1 MOL     -0.139715
     21 C8          6.4870    0.4960    0.6180 c         1 MOL      0.666888
     22 O5          7.1190   -0.1230    1.4830 o         1 MOL     -0.536630
     23 C9          7.2340   -0.1870   -1.8050 c3        1 MOL     -0.139563
     24 C10         7.9050   -1.5380   -1.5340 c3        1 MOL     -0.198891
     25 C11         8.0540   -2.3780   -2.8680 c3        1 MOL      0.249983
     26 C12         6.8740   -3.0600   -3.5180 c3        1 MOL      0.011001
     27 N3          7.2460   -3.7220   -4.7640 n4        1 MOL     -0.260192
     28 H8          9.1430    1.1220   -0.0940 hn        1 MOL      0.349314
     29 H9          6.3920    1.5630   -1.1460 h1        1 MOL      0.178787
     30 H10         7.6810    0.2640   -2.6880 hc        1 MOL      0.082508
     31 H11         6.2180   -0.4310   -2.1340 hc        1 MOL      0.082508
     32 H12         7.5230   -2.1530   -0.7250 hc        1 MOL      0.096641
     33 H13         8.9540   -1.3630   -1.2810 hc        1 MOL      0.096641
     34 H14         8.7980   -3.1570   -2.7010 hc        1 MOL     -0.046305
     35 H15         8.3290   -1.7170   -3.6890 hc        1 MOL     -0.046305
     36 H16         6.2310   -2.2480   -3.8640 hx        1 MOL      0.057795
     37 H17         6.4350   -3.7600   -2.8020 hx        1 MOL      0.057795
     38 H18         7.7500   -3.1890   -5.4500 hn        1 MOL      0.252884
     39 H19         7.7890   -4.5450   -4.5730 hn        1 MOL      0.252884
     40 H20         6.4150   -3.9410   -5.3030 hn        1 MOL      0.252884
     41 N4          5.2490    0.9660    0.8670 n         1 MOL     -0.668799
     42 C13         4.6330    0.9130    2.1810 c3        1 MOL      0.137240
     43 C14         3.0650    0.8900    1.9140 c         1 MOL      0.686711
     44 O6          2.5170    1.5630    1.0280 o         1 MOL     -0.604137
     45 C15         5.0300    2.0200    3.1930 c3        1 MOL      0.027294
     46 C16         5.1120    3.4530    2.6520 c         1 MOL      0.545740
     47 O7          5.7340    3.6940    1.5910 o         1 MOL     -0.680346
     48 O8          4.7350    4.4010    3.3670 o         1 MOL     -0.680346
     49 H21         4.7290    1.3330    0.0880 hn        1 MOL      0.301772
     50 H22         4.9110   -0.0020    2.7010 h1        1 MOL      0.091254
     51 H23         5.8890    1.6200    3.7300 hc        1 MOL      0.026835
     52 H24         4.1790    2.0840    3.8670 hc        1 MOL      0.026835
     53 N5          2.3190    0.1520    2.7240 n         1 MOL     -0.586786
     54 C17         2.6750   -0.9740    3.5660 c3        1 MOL      0.047250
     55 C18         3.0970   -2.3270    2.8400 c         1 MOL      0.542766
     56 O9          3.1780   -2.3400    1.6230 o         1 MOL     -0.552149
     57 H25         1.3610    0.0060    2.4380 hn        1 MOL      0.359494
     58 H26         1.8660   -1.1440    4.2740 h1        1 MOL      0.043347
     59 H27         3.5320   -0.5990    4.1260 h1        1 MOL      0.043347
     60 N6          3.3830   -3.3650    3.5980 n         1 MOL     -0.322419
     61 C19         3.9880   -4.6290    3.1000 c3        1 MOL     -0.183467
     62 C20         2.9660   -5.6950    2.6510 c         1 MOL      0.471926
     63 O10         3.2540   -6.7690    2.1490 o         1 MOL     -0.514429
     64 C21         4.9880   -5.0950    4.2140 c3        1 MOL     -0.089122
     65 C22         4.4100   -5.2500    5.6200 c         1 MOL      0.699698
     66 O11         4.6750   -4.4530    6.5390 o         1 MOL     -0.654469
     67 O12         3.6770   -6.2500    5.7940 o         1 MOL     -0.654469
     68 H28         3.3200   -3.2170    4.5900 hn        1 MOL      0.209555
     69 H29         4.6380   -4.3680    2.2540 h1        1 MOL      0.138858
     70 H30         5.9210   -4.5220    4.3300 hc        1 MOL      0.038552
     71 H31         5.3300   -6.1010    3.9580 hc        1 MOL      0.038552
     72 N7          1.6490   -5.4570    2.7680 n         1 MOL     -0.228959
     73 C23         0.5950   -6.3550    2.3550 c3        1 MOL     -0.044496
     74 C24         0.2580   -6.1760    0.8330 c         1 MOL      0.519507
     75 O13        -0.5590   -6.8790    0.3130 o         1 MOL     -0.565311
     76 H32         1.3820   -4.5230    3.0480 hn        1 MOL      0.191609
     77 H33        -0.3570   -6.4140    2.8930 h1        1 MOL      0.092438
     78 H34         1.0280   -7.3410    2.4900 h1        1 MOL      0.092438
     79 N8          0.9100   -5.2370    0.1440 n         1 MOL     -0.346360
     80 C25         0.7050   -4.8790   -1.2970 c3        1 MOL      0.174081
     81 C26         0.2720   -3.3440   -1.4600 c         1 MOL      0.345626
     82 O14         0.6390   -2.4280   -0.6860 o         1 MOL     -0.427548
     83 C27         2.0150   -5.1610   -2.1120 c3        1 MOL      0.234540
     84 C28         2.3170   -6.6580   -2.2710 c3        1 MOL     -0.284899
     85 O15         1.8740   -4.6040   -3.4310 oh        1 MOL     -0.603766
     86 H35         1.4250   -4.6160    0.7590 hn        1 MOL      0.179571
     87 H36        -0.0990   -5.5060   -1.6810 h1        1 MOL      0.066498
     88 H37         2.8790   -4.7410   -1.5950 h1        1 MOL      0.019478
     89 H38         2.6970   -4.4930   -3.9140 ho        1 MOL      0.358774
     90 H39         1.5040   -7.1710   -2.7800 hc        1 MOL      0.082996
     91 H40         3.2350   -6.6450   -2.8530 hc        1 MOL      0.082996
     92 H41         2.4960   -7.1200   -1.2970 hc        1 MOL      0.082996
     93 N9         -0.4840   -3.1000   -2.5910 n         1 MOL     -0.281101
     94 C29        -0.8160   -1.7060   -2.7850 c3        1 MOL     -0.359432
     95 C30        -1.8690   -1.1940   -1.7300 c         1 MOL      0.473085
     96 O16        -1.9030   -0.0170   -1.3460 o         1 MOL     -0.507445
     97 C31        -1.2640   -1.4540   -4.2120 c3        1 MOL      0.250382
     98 C32        -0.1130   -1.7230   -5.2410 c3        1 MOL      0.085551
     99 C33        -1.6930   -0.0130   -4.4140 c3        1 MOL     -0.344836
    100 C34         1.1710   -0.7900   -5.0810 c3        1 MOL     -0.254029
    101 H42        -0.8540   -3.8290   -3.1850 hn        1 MOL      0.267359
    102 H43         0.0780   -1.1100   -2.6180 h1        1 MOL      0.210711
    103 H44        -2.1050   -2.0980   -4.4620 hc        1 MOL     -0.009374
    104 H45        -0.6070   -1.5110   -6.1790 hc        1 MOL     -0.025004
    105 H46         0.1790   -2.7680   -5.2750 hc        1 MOL     -0.025004
    106 H47        -2.7530    0.0190   -4.1520 hc        1 MOL      0.090717
    107 H48        -1.0860    0.6650   -3.8160 hc        1 MOL      0.090717
    108 H49        -1.7090    0.2070   -5.4810 hc        1 MOL      0.090717
    109 H50         0.8520    0.2480   -5.0930 hc        1 MOL      0.057023
    110 H51         1.6840   -0.8540   -4.1300 hc        1 MOL      0.057023
    111 H52         1.8380   -1.1080   -5.8770 hc        1 MOL      0.057023
    112 N10        -2.7110   -2.1380   -1.3540 n         1 MOL     -0.085404
    113 C35        -3.8990   -1.9530   -0.5520 c3        1 MOL     -0.156742
    114 C36        -5.0890   -2.5640   -1.2350 c         1 MOL      0.599558
    115 O17        -4.9760   -3.4480   -2.0450 o         1 MOL     -0.534515
    116 C37        -3.7410   -2.5700    0.8780 c3        1 MOL      0.339249
    117 C38        -3.3540   -4.0860    0.8330 c3        1 MOL     -0.280572
    118 O18        -2.6780   -1.9370    1.5900 oh        1 MOL     -0.575779
    119 H53        -2.5170   -3.0470   -1.7530 hn        1 MOL      0.140711
    120 H54        -4.1470   -0.9080   -0.3470 h1        1 MOL      0.112037
    121 H55        -4.6640   -2.4580    1.4580 h1        1 MOL     -0.019222
    122 H56        -2.7450   -2.3550    2.4510 ho        1 MOL      0.382458
    123 H57        -3.9860   -4.5790    0.0980 hc        1 MOL      0.063507
    124 H58        -2.2830   -4.1840    0.6660 hc        1 MOL      0.063507
    125 H59        -3.6910   -4.4100    1.8210 hc        1 MOL      0.063507
    126 N11        -6.3120   -2.1600   -0.9370 n         1 MOL     -0.564972
    127 C39        -7.6320   -2.6290   -1.5620 c3        1 MOL      0.092928
    128 C40        -8.5610   -1.4000   -1.7260 c         1 MOL      0.557023
    129 O19        -9.0410   -1.2210   -2.8750 o         1 MOL     -0.558952
    130 C41        -8.2140   -3.6780   -0.6040 c3        1 MOL      0.266012
    131 C42        -9.5380   -4.2630   -0.9900 c3        1 MOL     -0.270167
    132 O20        -8.4960   -3.0360    0.6630 oh        1 MOL     -0.577236
    133 H60        -6.4150   -1.5190   -0.1630 hn        1 MOL      0.271434
    134 H61        -7.4710   -3.1610   -2.5080 h1        1 MOL      0.100074
    135 H62        -7.4720   -4.4770   -0.4940 h1        1 MOL      0.053489
    136 H63        -7.9170   -3.5160    1.2560 ho        1 MOL      0.373937
    137 H64        -9.9120   -5.0180   -0.2890 hc        1 MOL      0.069601
    138 H65       -10.3150   -3.5190   -1.1720 hc        1 MOL      0.069601
    139 H66        -9.2980   -4.7350   -1.9430 hc        1 MOL      0.069601
    140 N12        -8.8420   -0.5980   -0.6740 n         1 MOL     -0.495001
    141 C43        -9.7040    0.6060   -0.6970 c3        1 MOL      0.251043
    142 C44        -9.1390    1.6960    0.1830 c         1 MOL      0.372300
    143 O21        -8.5650    1.4920    1.2700 o         1 MOL     -0.489604
    144 C45       -11.1900    0.1710   -0.3910 c3        1 MOL     -0.433458
    145 C46       -12.1310    1.3280   -0.0980 c3        1 MOL      0.057612
    146 C47       -13.5750    0.8210    0.1680 c3        1 MOL     -0.055001
    147 C48       -14.5130    2.0230    0.0110 c3        1 MOL     -0.052925
    148 N13       -15.9180    1.6390    0.3050 n4        1 MOL     -0.101166
    149 H67        -8.5650   -1.0080    0.2000 hn        1 MOL      0.267163
    150 H68        -9.7160    1.0430   -1.6920 h1        1 MOL      0.043592
    151 H69       -11.0610   -0.4700    0.4750 hc        1 MOL      0.165798
    152 H70       -11.4710   -0.3300   -1.3160 hc        1 MOL      0.165798
    153 H71       -12.0520    2.0720   -0.8950 hc        1 MOL      0.036626
    154 H72       -11.9110    1.9290    0.7750 hc        1 MOL      0.036626
    155 H73       -13.6120    0.4090    1.1770 hc        1 MOL      0.047762
    156 H74       -13.9590   -0.0490   -0.3540 hc        1 MOL      0.047762
    157 H75       -14.4560    2.3510   -1.0280 hx        1 MOL      0.095076
    158 H76       -14.2160    2.7360    0.7880 hx        1 MOL      0.095076
    159 H77       -16.0510    1.2990    1.2500 hn        1 MOL      0.221405
    160 H78       -16.5880    2.4030    0.3550 hn        1 MOL      0.221405
    161 H79       -16.2180    0.8330   -0.2100 hn        1 MOL      0.221405
    162 N14        -9.3170    2.9540   -0.1880 n         1 MOL     -0.367971
    163 C49        -9.0220    4.0740    0.7390 c3        1 MOL      0.222314
    164 C50        -7.5580    4.4900    0.9390 c         1 MOL      0.369502
    165 O22        -7.0960    4.5340    2.0880 o         1 MOL     -0.540608
    166 C51        -9.9730    5.3090    0.4340 c3        1 MOL     -0.106429
    167 C52       -10.1070    6.1450    1.6890 c3        1 MOL     -0.202193
    168 C53       -11.0130    7.3370    1.5680 c         1 MOL      0.731924
    169 O23       -12.0770    7.3790    2.2630 o         1 MOL     -0.669536
    170 O24       -10.6660    8.3140    0.8650 o         1 MOL     -0.669536
    171 H80        -9.6010    3.1280   -1.1440 hn        1 MOL      0.226868
    172 H81        -9.2900    3.7140    1.7240 h1        1 MOL      0.062592
    173 H82       -10.9420    4.9760    0.0560 hc        1 MOL      0.022952
    174 H83        -9.5820    5.9930   -0.3240 hc        1 MOL      0.022952
    175 H84        -9.0930    6.4330    1.9720 hc        1 MOL      0.052855
    176 H85       -10.4380    5.4450    2.4640 hc        1 MOL      0.052855
    177 N15        -6.7610    4.7270   -0.0380 n         1 MOL     -0.259578
    178 C54        -7.0070    4.8870   -1.4680 c3        1 MOL      0.025931
    179 H86        -7.9700    5.3760   -1.6180 h1        1 MOL      0.030167
    180 H87        -6.2180    5.4970   -1.9070 h1        1 MOL      0.030167
    181 H88        -7.0190    3.9080   -1.9470 h1        1 MOL      0.030167
    182 H89        -5.7900    4.8470    0.2150 hn        1 MOL      0.271527
    183 Ca1         6.3440    5.3720   -0.1920 Ca        1 MOL      1.754885
    184 O25         4.7500    3.4240   -1.4110 oh        1 MOL     -1.043226
    185 H90         4.4570    3.3900   -2.3190 ho        1 MOL      0.495048
    186 H91         3.9740    3.2110   -0.9030 ho        1 MOL      0.495048
    187 O26         6.7470    6.0620    2.4630 oh        1 MOL     -1.043226
    188 H92         5.9220    5.6780    2.7510 ho        1 MOL      0.495048
    189 H93         7.4020    5.7000    3.0670 ho        1 MOL      0.495048
@<TRIPOS>BOND
     1    1    2 1   
     2    1    4 1   
     3    1    5 1   
     4    1    6 1   
     5    2    3 2   
     6    2    7 1   
     7    7    8 1   
     8    7   15 1   
     9    8    9 1   
    10    8   11 1   
    11    8   16 1   
    12    9   10 2   
    13    9   19 1   
    14   11   12 1   
    15   11   17 1   
    16   11   18 1   
    17   12   13 1   
    18   12   14 1   
    19   19   20 1   
    20   19   28 1   
    21   20   21 1   
    22   20   23 1   
    23   20   29 1   
    24   21   22 2   
    25   21   41 1   
    26   23   24 1   
    27   23   30 1   
    28   23   31 1   
    29   24   25 1   
    30   24   32 1   
    31   24   33 1   
    32   25   26 1   
    33   25   34 1   
    34   25   35 1   
    35   26   27 1   
    36   26   36 1   
    37   26   37 1   
    38   27   38 1   
    39   27   39 1   
    40   27   40 1   
    41   41   42 1   
    42   41   49 1   
    43   42   43 1   
    44   42   45 1   
    45   42   50 1   
    46   43   44 2   
    47   43   53 1   
    48   45   46 1   
    49   45   51 1   
    50   45   52 1   
    51   46   47 1   
    52   46   48 1   
    53   53   54 1   
    54   53   57 1   
    55   54   55 1   
    56   54   58 1   
    57   54   59 1   
    58   55   56 2   
    59   55   60 1   
    60   60   61 1   
    61   60   68 1   
    62   61   62 1   
    63   61   64 1   
    64   61   69 1   
    65   62   63 2   
    66   62   72 1   
    67   64   65 1   
    68   64   70 1   
    69   64   71 1   
    70   65   66 1   
    71   65   67 1   
    72   72   73 1   
    73   72   76 1   
    74   73   74 1   
    75   73   77 1   
    76   73   78 1   
    77   74   75 2   
    78   74   79 1   
    79   79   80 1   
    80   79   86 1   
    81   80   81 1   
    82   80   83 1   
    83   80   87 1   
    84   81   82 2   
    85   81   93 1   
    86   83   84 1   
    87   83   85 1   
    88   83   88 1   
    89   84   90 1   
    90   84   91 1   
    91   84   92 1   
    92   85   89 1   
    93   93   94 1   
    94   93  101 1   
    95   94   95 1   
    96   94   97 1   
    97   94  102 1   
    98   95   96 2   
    99   95  112 1   
   100   97   98 1   
   101   97   99 1   
   102   97  103 1   
   103   98  100 1   
   104   98  104 1   
   105   98  105 1   
   106   99  106 1   
   107   99  107 1   
   108   99  108 1   
   109  100  109 1   
   110  100  110 1   
   111  100  111 1   
   112  112  113 1   
   113  112  119 1   
   114  113  114 1   
   115  113  116 1   
   116  113  120 1   
   117  114  115 2   
   118  114  126 1   
   119  116  117 1   
   120  116  118 1   
   121  116  121 1   
   122  117  123 1   
   123  117  124 1   
   124  117  125 1   
   125  118  122 1   
   126  126  127 1   
   127  126  133 1   
   128  127  128 1   
   129  127  130 1   
   130  127  134 1   
   131  128  129 2   
   132  128  140 1   
   133  130  131 1   
   134  130  132 1   
   135  130  135 1   
   136  131  137 1   
   137  131  138 1   
   138  131  139 1   
   139  132  136 1   
   140  140  141 1   
   141  140  149 1   
   142  141  142 1   
   143  141  144 1   
   144  141  150 1   
   145  142  143 2   
   146  142  162 1   
   147  144  145 1   
   148  144  151 1   
   149  144  152 1   
   150  145  146 1   
   151  145  153 1   
   152  145  154 1   
   153  146  147 1   
   154  146  155 1   
   155  146  156 1   
   156  147  148 1   
   157  147  157 1   
   158  147  158 1   
   159  148  159 1   
   160  148  160 1   
   161  148  161 1   
   162  162  163 1   
   163  162  171 1   
   164  163  164 1   
   165  163  166 1   
   166  163  172 1   
   167  164  165 2   
   168  164  177 1   
   169  166  167 1   
   170  166  173 1   
   171  166  174 1   
   172  167  168 1   
   173  167  175 1   
   174  167  176 1   
   175  168  169 1   
   176  168  170 1   
   177  177  178 1   
   178  177  182 1   
   179  178  179 1   
   180  178  180 1   
   181  178  181 1   
   182  184  185 1   
   183  184  186 1   
   184  187  188 1   
   185  187  189 1   
@<TRIPOS>SUBSTRUCTURE
     1 MOL         1 TEMP              0 ****  ****    0 ROOT
