@<TRIPOS>MOLECULE
MOL
  189   185     1     0     0
SMALL
resp


@<TRIPOS>ATOM
      1 C1          5.4620    1.9060    5.6950 c3        1 MOL     -0.338395
      2 C2          4.9840    1.5570    4.2260 c         1 MOL      0.630381
      3 O1          4.5990    2.4850    3.4970 o         1 MOL     -0.543623
      4 H1          6.3830    2.4880    5.6480 hc        1 MOL      0.092189
      5 H2          4.6910    2.4890    6.1990 hc        1 MOL      0.092189
      6 H3          5.6410    0.9840    6.2470 hc        1 MOL      0.092189
      7 N1          4.9550    0.3050    3.8170 n         1 MOL     -0.483961
      8 C3          4.9750   -0.0490    2.4110 c3        1 MOL      0.691424
      9 C4          3.6590    0.0020    1.7250 c         1 MOL     -0.269785
     10 O2          3.4720   -0.6210    0.6050 o         1 MOL     -0.250342
     11 C5          5.6010   -1.4910    2.4230 c3        1 MOL     -0.355884
     12 C6          7.0830   -1.5570    2.5960 c         1 MOL      0.678793
     13 O3          7.4570   -1.4230    3.7980 o         1 MOL     -0.672164
     14 O4          7.8760   -1.7400    1.6360 o         1 MOL     -0.672164
     15 H4          5.0110   -0.4600    4.4740 hn        1 MOL      0.242874
     16 H5          5.5500    0.6900    1.8500 h1        1 MOL      0.002956
     17 H6          5.2450   -2.0660    1.5690 hc        1 MOL      0.026356
     18 H7          5.1830   -2.0040    3.2870 hc        1 MOL      0.026356
     19 N2          2.6690    0.6390    2.3450 n         1 MOL      0.012820
     20 C7          1.2030    0.3170    2.2360 c3        1 MOL      0.038884
     21 C8          0.4380    1.6160    1.9000 c         1 MOL      0.499255
     22 O5          0.6030    2.5910    2.5810 o         1 MOL     -0.510438
     23 C9          0.6210   -0.3540    3.4900 c3        1 MOL     -0.391761
     24 C10         1.5300   -1.6290    3.9270 c3        1 MOL      0.186727
     25 C11         0.7730   -2.3960    4.9710 c3        1 MOL     -0.246925
     26 C12         1.7880   -3.2600    5.7150 c3        1 MOL     -0.119488
     27 N3          2.4450   -2.6350    6.7920 n4        1 MOL     -0.320873
     28 H8          2.9220    1.2730    3.0840 hn        1 MOL      0.153676
     29 H9          1.1080   -0.4890    1.5180 h1        1 MOL      0.129946
     30 H10        -0.3530   -0.8090    3.2750 hc        1 MOL      0.108552
     31 H11         0.5260    0.3540    4.3130 hc        1 MOL      0.108552
     32 H12         2.4630   -1.3180    4.4140 hc        1 MOL      0.005263
     33 H13         1.7020   -2.2870    3.0750 hc        1 MOL      0.005263
     34 H14         0.0610   -2.9980    4.4040 hc        1 MOL      0.132035
     35 H15         0.2380   -1.7790    5.6910 hc        1 MOL      0.132035
     36 H16         2.5430   -3.7110    5.0670 hx        1 MOL      0.129437
     37 H17         1.2010   -4.0230    6.2330 hx        1 MOL      0.129437
     38 H18         2.4180   -3.2820    7.5660 hn        1 MOL      0.326706
     39 H19         3.4040   -2.6440    6.4640 hn        1 MOL      0.326706
     40 H20         2.1800   -1.6800    6.9900 hn        1 MOL      0.326706
     41 N4         -0.4880    1.6760    0.9890 n         1 MOL     -0.147133
     42 C13        -1.0470    0.6490    0.0850 c3        1 MOL     -0.387112
     43 C14        -1.4450   -0.7090    0.7340 c         1 MOL      0.515669
     44 O6         -0.9230   -1.7850    0.4060 o         1 MOL     -0.440630
     45 C15        -0.1610    0.5430   -1.1140 c3        1 MOL     -0.493204
     46 C16        -0.0490    1.7860   -1.9870 c         1 MOL      0.681142
     47 O7          0.7840    1.6790   -2.9070 o         1 MOL     -0.622163
     48 O8         -0.7340    2.8240   -1.7630 o         1 MOL     -0.622163
     49 H21        -0.7490    2.6260    0.7790 hn        1 MOL      0.085948
     50 H22        -1.9800    1.1080   -0.2530 h1        1 MOL      0.117494
     51 H23        -0.4680   -0.3300   -1.6830 hc        1 MOL      0.241175
     52 H24         0.8220    0.2590   -0.7230 hc        1 MOL      0.241175
     53 N5         -2.4020   -0.6930    1.7220 n         1 MOL     -0.262940
     54 C17        -3.4440    0.3110    1.9320 c3        1 MOL     -0.173043
     55 C18        -4.2820    0.0800    3.1310 c         1 MOL      0.573037
     56 O9         -4.1150   -0.8930    3.8600 o         1 MOL     -0.542828
     57 H25        -2.5340   -1.5760    2.1840 hn        1 MOL      0.243594
     58 H26        -4.0520    0.3470    1.0270 h1        1 MOL      0.135436
     59 H27        -3.0220    1.2960    2.0550 h1        1 MOL      0.135436
     60 N6         -5.3400    0.8570    3.4370 n         1 MOL     -0.557280
     61 C19        -5.6630    2.0920    2.8360 c3        1 MOL      0.120599
     62 C20        -6.7500    1.9510    1.7850 c         1 MOL      0.494266
     63 O10        -7.6940    1.1310    1.8260 o         1 MOL     -0.457467
     64 C21        -6.0400    3.1640    3.8610 c3        1 MOL     -0.030212
     65 C22        -7.2100    2.9330    4.7790 c         1 MOL      0.665795
     66 O11        -7.2150    1.9750    5.5610 o         1 MOL     -0.619027
     67 O12        -8.2030    3.6600    4.6050 o         1 MOL     -0.619027
     68 H28        -5.8660    0.5460    4.2370 hn        1 MOL      0.344376
     69 H29        -4.7900    2.4650    2.3100 h1        1 MOL     -0.002407
     70 H30        -6.3070    4.1000    3.3810 hc        1 MOL     -0.021634
     71 H31        -5.1270    3.4510    4.3870 hc        1 MOL     -0.021634
     72 N7         -6.6000    2.7830    0.7270 n         1 MOL     -0.269395
     73 C23        -7.5200    2.8600   -0.4650 c3        1 MOL     -0.232880
     74 C24        -7.5820    1.6210   -1.2850 c         1 MOL      0.573651
     75 O13        -8.6250    1.1830   -1.7390 o         1 MOL     -0.501835
     76 H32        -5.7820    3.3670    0.7260 hn        1 MOL      0.172842
     77 H33        -7.0750    3.6230   -1.1060 h1        1 MOL      0.129107
     78 H34        -8.5290    3.1360   -0.1960 h1        1 MOL      0.129107
     79 N8         -6.3740    0.9620   -1.5140 n         1 MOL     -0.446639
     80 C25        -6.1750   -0.3890   -2.0790 c3        1 MOL     -0.132752
     81 C26        -5.0160   -1.2140   -1.4920 c         1 MOL      0.245056
     82 O14        -3.8880   -0.7770   -1.4540 o         1 MOL     -0.258882
     83 C27        -6.0470   -0.3290   -3.5810 c3        1 MOL      0.349994
     84 C28        -6.4030   -1.5500   -4.3260 c3        1 MOL     -0.205230
     85 O15        -4.6560   -0.1240   -3.9490 oh        1 MOL     -0.617841
     86 H35        -5.5250    1.3980   -1.1940 hn        1 MOL      0.230272
     87 H36        -7.0660   -0.9790   -1.8780 h1        1 MOL      0.153907
     88 H37        -6.6640    0.4910   -3.9460 h1        1 MOL      0.035516
     89 H38        -4.1600    0.2170   -3.2160 ho        1 MOL      0.343586
     90 H39        -7.4810   -1.6750   -4.3110 hc        1 MOL      0.064495
     91 H40        -6.2050   -1.4730   -5.3990 hc        1 MOL      0.064495
     92 H41        -5.9350   -2.3870   -3.8030 hc        1 MOL      0.064495
     93 N9         -5.2820   -2.4360   -0.9930 n         1 MOL     -0.271810
     94 C29        -4.3030   -3.2620   -0.3700 c3        1 MOL     -0.032056
     95 C30        -3.4500   -3.9940   -1.3590 c         1 MOL      0.437547
     96 O16        -3.8380   -5.1510   -1.7280 o         1 MOL     -0.537930
     97 C31        -4.9630   -4.2360    0.6590 c3        1 MOL      0.288621
     98 C32        -5.9010   -3.3970    1.5990 c3        1 MOL     -0.325247
     99 C33        -3.8470   -4.9670    1.5250 c3        1 MOL     -0.248921
    100 C34        -6.7010   -4.1900    2.5950 c3        1 MOL     -0.136017
    101 H42        -6.2510   -2.7440   -0.9500 hn        1 MOL      0.269183
    102 H43        -3.5990   -2.6340    0.1890 h1        1 MOL      0.007149
    103 H44        -5.5040   -4.9880    0.0980 hc        1 MOL     -0.004564
    104 H45        -6.7080   -2.8800    1.0840 hc        1 MOL      0.118920
    105 H46        -5.3350   -2.7920    2.3090 hc        1 MOL      0.118920
    106 H47        -4.2260   -5.5040    2.4010 hc        1 MOL      0.059319
    107 H48        -3.3190   -5.7540    0.9860 hc        1 MOL      0.059319
    108 H49        -3.1830   -4.1700    1.8690 hc        1 MOL      0.059319
    109 H50        -6.0030   -4.7400    3.2250 hc        1 MOL      0.047120
    110 H51        -7.3520   -3.5480    3.1970 hc        1 MOL      0.047120
    111 H52        -7.2530   -4.8870    1.9720 hc        1 MOL      0.047120
    112 N10        -2.5050   -3.2790   -1.9840 n         1 MOL     -0.217184
    113 C35        -1.7380   -3.6920   -3.2030 c3        1 MOL     -0.043193
    114 C36        -0.2500   -3.6370   -2.9360 c         1 MOL      0.333154
    115 O17         0.3070   -4.1960   -3.8400 o         1 MOL     -0.511477
    116 C37        -2.1740   -2.8570   -4.4270 c3        1 MOL      0.474868
    117 C38        -1.6350   -1.3900   -4.5850 c3        1 MOL     -0.413801
    118 O18        -3.5590   -2.8230   -4.6190 oh        1 MOL     -0.592675
    119 H53        -2.2940   -2.3280   -1.7300 hn        1 MOL      0.107706
    120 H54        -2.0210   -4.7080   -3.4830 h1        1 MOL      0.118964
    121 H55        -1.9070   -3.4180   -5.3250 h1        1 MOL      0.008265
    122 H56        -3.7770   -1.9690   -4.2660 ho        1 MOL      0.310724
    123 H57        -0.6420   -1.3290   -4.1500 hc        1 MOL      0.117491
    124 H58        -1.3710   -1.2250   -5.6320 hc        1 MOL      0.117491
    125 H59        -2.2570   -0.5720   -4.2130 hc        1 MOL      0.117491
    126 N11         0.3010   -3.1020   -1.8080 n         1 MOL     -0.099914
    127 C39         1.7370   -2.9180   -1.6220 c3        1 MOL      0.256732
    128 C40         2.4940   -2.0590   -2.6660 c         1 MOL      0.214492
    129 O19         2.2760   -2.1230   -3.8280 o         1 MOL     -0.447140
    130 C41         2.4910   -4.1820   -1.3110 c3        1 MOL      0.304844
    131 C42         2.0400   -4.7810    0.0360 c3        1 MOL     -0.438747
    132 O20         3.8670   -3.9740   -1.1440 oh        1 MOL     -0.607368
    133 H60        -0.2880   -2.6660   -1.1080 hn        1 MOL     -0.006366
    134 H61         1.8590   -2.3950   -0.6750 h1        1 MOL     -0.006653
    135 H62         2.2400   -4.8960   -2.0920 h1        1 MOL      0.017043
    136 H63         4.3960   -4.7630   -1.2580 ho        1 MOL      0.397798
    137 H64         2.8380   -5.4860    0.2620 hc        1 MOL      0.097900
    138 H65         1.9520   -4.1190    0.9030 hc        1 MOL      0.097900
    139 H66         1.0750   -5.2540   -0.1440 hc        1 MOL      0.097900
    140 N12         3.4830   -1.3350   -2.2030 n         1 MOL     -0.146642
    141 C43         4.6050   -0.7490   -2.9630 c3        1 MOL      0.023261
    142 C44         4.9830    0.6810   -2.5100 c         1 MOL      0.430423
    143 O21         5.7970    1.3520   -3.1110 o         1 MOL     -0.546672
    144 C45         5.8070   -1.7280   -3.0300 c3        1 MOL     -0.230024
    145 C46         6.5220   -2.2540   -1.7460 c3        1 MOL     -0.123078
    146 C47         7.2320   -3.5730   -2.1660 c3        1 MOL     -0.045584
    147 C48         8.4010   -3.7790   -1.1740 c3        1 MOL     -0.102571
    148 N13         7.9150   -4.1080    0.2160 n4        1 MOL     -0.232391
    149 H67         3.4960   -1.3720   -1.1880 hn        1 MOL      0.100754
    150 H68         4.2970   -0.7550   -4.0030 h1        1 MOL      0.101168
    151 H69         6.5500   -1.2730   -3.6760 hc        1 MOL      0.110932
    152 H70         5.4390   -2.5290   -3.6850 hc        1 MOL      0.110932
    153 H71         5.8690   -2.2790   -0.8720 hc        1 MOL      0.114881
    154 H72         7.3480   -1.5640   -1.6030 hc        1 MOL      0.114881
    155 H73         7.6550   -3.4800   -3.1640 hc        1 MOL      0.030635
    156 H74         6.5450   -4.4250   -2.1860 hc        1 MOL      0.030635
    157 H75         9.1100   -2.9550   -1.1170 hx        1 MOL      0.119481
    158 H76         8.9570   -4.6140   -1.5960 hx        1 MOL      0.119481
    159 H77         7.6970   -3.2740    0.7550 hn        1 MOL      0.267491
    160 H78         7.1540   -4.7700    0.2080 hn        1 MOL      0.267491
    161 H79         8.5790   -4.5900    0.7980 hn        1 MOL      0.267491
    162 N14         4.4090    1.2850   -1.4410 n         1 MOL     -0.040553
    163 C49         4.4610    2.7570   -1.2370 c3        1 MOL     -0.482364
    164 C50         5.7840    3.4970   -0.8780 c         1 MOL      0.651223
    165 O22         6.5320    2.9610   -0.0920 o         1 MOL     -0.516647
    166 C51         3.4190    3.0840   -0.1270 c3        1 MOL      0.119403
    167 C52         3.1730    4.6110    0.2530 c3        1 MOL     -0.102714
    168 C53         2.9270    5.4870   -0.9540 c         1 MOL      0.186274
    169 O23         1.8780    5.2070   -1.6140 o         1 MOL     -0.523979
    170 O24         3.8130    6.1800   -1.4480 o         1 MOL     -0.523979
    171 H80         3.8620    0.6320   -0.9020 hn        1 MOL      0.083058
    172 H81         4.1240    3.2180   -2.1700 h1        1 MOL      0.241788
    173 H82         3.8560    2.6660    0.7780 hc        1 MOL      0.010544
    174 H83         2.4630    2.5770   -0.3040 hc        1 MOL      0.010544
    175 H84         3.9530    5.0100    0.8940 hc        1 MOL      0.067848
    176 H85         2.3340    4.5130    0.9550 hc        1 MOL      0.067848
    177 N15         6.0710    4.7570   -1.3160 n         1 MOL     -0.424921
    178 C54         7.2620    5.6220   -1.1590 c3        1 MOL      0.036600
    179 H86         7.9210    5.4920   -2.0180 h1        1 MOL      0.035267
    180 H87         6.9500    6.6640   -1.0950 h1        1 MOL      0.035267
    181 H88         7.7940    5.3450   -0.2490 h1        1 MOL      0.035267
    182 H89         5.3030    5.2260   -1.7740 hn        1 MOL      0.328022
    183 Ca1        -0.7450    5.4940   -2.0410 Ca        1 MOL      1.502347
    184 O25        -0.1170    6.8110   -4.2930 oh        1 MOL     -0.845504
    185 H90        -0.5990    7.6280   -4.3840 ho        1 MOL      0.421080
    186 H91         0.6040    6.8830   -4.9190 ho        1 MOL      0.421080
    187 O26        -2.0610    4.3020   -4.0490 oh        1 MOL     -0.845504
    188 H92        -2.8480    3.7530   -4.0610 ho        1 MOL      0.421080
    189 H93        -2.0170    4.6670   -4.9350 ho        1 MOL      0.421080
@<TRIPOS>BOND
     1    1    2 1   
     2    1    4 1   
     3    1    5 1   
     4    1    6 1   
     5    2    3 2   
     6    2    7 1   
     7    7    8 1   
     8    7   15 1   
     9    8    9 1   
    10    8   11 1   
    11    8   16 1   
    12    9   10 2   
    13    9   19 1   
    14   11   12 1   
    15   11   17 1   
    16   11   18 1   
    17   12   13 1   
    18   12   14 1   
    19   19   20 1   
    20   19   28 1   
    21   20   21 1   
    22   20   23 1   
    23   20   29 1   
    24   21   22 2   
    25   21   41 1   
    26   23   24 1   
    27   23   30 1   
    28   23   31 1   
    29   24   25 1   
    30   24   32 1   
    31   24   33 1   
    32   25   26 1   
    33   25   34 1   
    34   25   35 1   
    35   26   27 1   
    36   26   36 1   
    37   26   37 1   
    38   27   38 1   
    39   27   39 1   
    40   27   40 1   
    41   41   42 1   
    42   41   49 1   
    43   42   43 1   
    44   42   45 1   
    45   42   50 1   
    46   43   44 2   
    47   43   53 1   
    48   45   46 1   
    49   45   51 1   
    50   45   52 1   
    51   46   47 1   
    52   46   48 1   
    53   53   54 1   
    54   53   57 1   
    55   54   55 1   
    56   54   58 1   
    57   54   59 1   
    58   55   56 2   
    59   55   60 1   
    60   60   61 1   
    61   60   68 1   
    62   61   62 1   
    63   61   64 1   
    64   61   69 1   
    65   62   63 2   
    66   62   72 1   
    67   64   65 1   
    68   64   70 1   
    69   64   71 1   
    70   65   66 1   
    71   65   67 1   
    72   72   73 1   
    73   72   76 1   
    74   73   74 1   
    75   73   77 1   
    76   73   78 1   
    77   74   75 2   
    78   74   79 1   
    79   79   80 1   
    80   79   86 1   
    81   80   81 1   
    82   80   83 1   
    83   80   87 1   
    84   81   82 2   
    85   81   93 1   
    86   83   84 1   
    87   83   85 1   
    88   83   88 1   
    89   84   90 1   
    90   84   91 1   
    91   84   92 1   
    92   85   89 1   
    93   93   94 1   
    94   93  101 1   
    95   94   95 1   
    96   94   97 1   
    97   94  102 1   
    98   95   96 2   
    99   95  112 1   
   100   97   98 1   
   101   97   99 1   
   102   97  103 1   
   103   98  100 1   
   104   98  104 1   
   105   98  105 1   
   106   99  106 1   
   107   99  107 1   
   108   99  108 1   
   109  100  109 1   
   110  100  110 1   
   111  100  111 1   
   112  112  113 1   
   113  112  119 1   
   114  113  114 1   
   115  113  116 1   
   116  113  120 1   
   117  114  115 2   
   118  114  126 1   
   119  116  117 1   
   120  116  118 1   
   121  116  121 1   
   122  117  123 1   
   123  117  124 1   
   124  117  125 1   
   125  118  122 1   
   126  126  127 1   
   127  126  133 1   
   128  127  128 1   
   129  127  130 1   
   130  127  134 1   
   131  128  129 2   
   132  128  140 1   
   133  130  131 1   
   134  130  132 1   
   135  130  135 1   
   136  131  137 1   
   137  131  138 1   
   138  131  139 1   
   139  132  136 1   
   140  140  141 1   
   141  140  149 1   
   142  141  142 1   
   143  141  144 1   
   144  141  150 1   
   145  142  143 2   
   146  142  162 1   
   147  144  145 1   
   148  144  151 1   
   149  144  152 1   
   150  145  146 1   
   151  145  153 1   
   152  145  154 1   
   153  146  147 1   
   154  146  155 1   
   155  146  156 1   
   156  147  148 1   
   157  147  157 1   
   158  147  158 1   
   159  148  159 1   
   160  148  160 1   
   161  148  161 1   
   162  162  163 1   
   163  162  171 1   
   164  163  164 1   
   165  163  166 1   
   166  163  172 1   
   167  164  165 2   
   168  164  177 1   
   169  166  167 1   
   170  166  173 1   
   171  166  174 1   
   172  167  168 1   
   173  167  175 1   
   174  167  176 1   
   175  168  169 1   
   176  168  170 1   
   177  177  178 1   
   178  177  182 1   
   179  178  179 1   
   180  178  180 1   
   181  178  181 1   
   182  184  185 1   
   183  184  186 1   
   184  187  188 1   
   185  187  189 1   
@<TRIPOS>SUBSTRUCTURE
     1 MOL         1 TEMP              0 ****  ****    0 ROOT
