@<TRIPOS>MOLECULE
MOL
  191   184     1     0     0
SMALL
resp


@<TRIPOS>ATOM
      1 C1         -5.1190    2.1630   -2.4380 c3        1 MOL     -0.560755
      2 C2         -6.2930    1.9650   -1.4230 c         1 MOL      0.615606
      3 O1         -6.1800    1.4170   -0.3080 o         1 MOL     -0.551074
      4 H1         -4.3530    1.4080   -2.2580 hc        1 MOL      0.145674
      5 H2         -5.4970    2.0620   -3.4550 hc        1 MOL      0.145674
      6 H3         -4.6880    3.1560   -2.3070 hc        1 MOL      0.145674
      7 N1         -7.4970    2.3070   -1.7880 n         1 MOL     -0.493687
      8 C3         -8.6740    2.0140   -0.8970 c3        1 MOL      0.308477
      9 C4         -8.8500    0.6280   -0.3150 c         1 MOL      0.287173
     10 O2         -9.3980    0.4800    0.8300 o         1 MOL     -0.475452
     11 C5         -8.6170    3.0790    0.2730 c3        1 MOL     -0.377598
     12 C6        -10.0290    3.6240    0.5520 c         1 MOL      0.736790
     13 O3        -10.2540    4.4020    1.4560 o         1 MOL     -0.661079
     14 O4        -10.9990    3.2230   -0.1580 o         1 MOL     -0.661079
     15 H4         -7.6450    2.5810   -2.7580 hn        1 MOL      0.281434
     16 H5         -9.5780    2.1490   -1.4820 h1        1 MOL     -0.032366
     17 H6         -8.0710    3.9200   -0.1420 hc        1 MOL      0.126079
     18 H7         -8.0880    2.6860    1.1420 hc        1 MOL      0.126079
     19 N2         -8.4830   -0.3570   -1.1190 n         1 MOL     -0.142837
     20 C7         -8.5090   -1.7750   -0.7780 c3        1 MOL      0.121945
     21 C8         -7.1750   -2.5050   -0.5640 c         1 MOL      0.611278
     22 O5         -7.1950   -3.6940   -0.3040 o         1 MOL     -0.559115
     23 C9         -9.3270   -2.2850   -1.9370 c3        1 MOL     -0.274789
     24 C10       -10.8620   -2.1050   -1.8780 c3        1 MOL      0.022991
     25 C11       -11.4450   -2.8120   -3.0270 c3        1 MOL      0.110914
     26 C12       -12.9140   -2.5160   -3.3680 c3        1 MOL     -0.108392
     27 N3        -13.8180   -3.0820   -2.3640 n4        1 MOL     -0.161545
     28 H8         -8.0110   -0.1140   -1.9690 hn        1 MOL      0.142066
     29 H9         -9.0660   -1.9000    0.1530 h1        1 MOL      0.088928
     30 H10        -9.1620   -3.3570   -1.8630 hc        1 MOL      0.057744
     31 H11        -8.9930   -1.8140   -2.8640 hc        1 MOL      0.057744
     32 H12       -11.0570   -1.0360   -1.9480 hc        1 MOL      0.027620
     33 H13       -11.1780   -2.6810   -1.0090 hc        1 MOL      0.027620
     34 H14       -11.3320   -3.8860   -2.9030 hc        1 MOL      0.002163
     35 H15       -10.9050   -2.5750   -3.9360 hc        1 MOL      0.002163
     36 H16       -13.1740   -2.8210   -4.3760 hx        1 MOL      0.106478
     37 H17       -13.0650   -1.4410   -3.3480 hx        1 MOL      0.106478
     38 H18       -14.7820   -2.8390   -2.5100 hn        1 MOL      0.228919
     39 H19       -13.8160   -4.0890   -2.3960 hn        1 MOL      0.228919
     40 H20       -13.5550   -2.8560   -1.4110 hn        1 MOL      0.228919
     41 N4         -6.0400   -1.8010   -0.7600 n         1 MOL     -0.566036
     42 C13        -4.7390   -2.3610   -0.3930 c3        1 MOL      0.026181
     43 C14        -4.6670   -2.7150    1.1360 c         1 MOL      0.447730
     44 O6         -5.2520   -1.8790    1.8490 o         1 MOL     -0.447369
     45 C15        -3.5510   -1.4350   -0.7700 c3        1 MOL      0.083848
     46 C16        -2.1660   -1.9250   -0.5380 c         1 MOL      0.381751
     47 O7         -1.7120   -1.9290    0.6160 o         1 MOL     -0.597830
     48 O8         -1.3680   -2.2060   -1.5060 o         1 MOL     -0.597830
     49 H21        -6.1140   -0.8960   -1.1880 hn        1 MOL      0.328580
     50 H22        -4.5800   -3.2380   -1.0130 h1        1 MOL      0.045287
     51 H23        -3.6650   -0.4810   -0.2620 hc        1 MOL      0.010049
     52 H24        -3.6860   -1.2360   -1.8300 hc        1 MOL      0.010049
     53 N5         -4.0040   -3.7900    1.6010 n         1 MOL     -0.263058
     54 C17        -3.7980   -4.0310    3.0170 c3        1 MOL     -0.062760
     55 C18        -3.3300   -2.8120    3.7790 c         1 MOL      0.585048
     56 O9         -3.6950   -2.7230    4.9190 o         1 MOL     -0.564371
     57 H25        -3.7570   -4.4830    0.9100 hn        1 MOL      0.210950
     58 H26        -3.1490   -4.8910    3.1180 h1        1 MOL      0.063657
     59 H27        -4.7390   -4.3250    3.4940 h1        1 MOL      0.063657
     60 N6         -2.4910   -1.9270    3.2400 n         1 MOL     -0.132282
     61 C19        -1.8880   -0.8010    4.0580 c3        1 MOL     -0.155637
     62 C20        -1.8070    0.5320    3.3560 c         1 MOL      0.526438
     63 O10        -1.7700    1.5540    4.0480 o         1 MOL     -0.523018
     64 C21        -0.5260   -1.3270    4.5880 c3        1 MOL     -0.111251
     65 C22         0.4700   -1.6740    3.4520 c         1 MOL      0.686309
     66 N7          1.5970   -1.0760    3.4180 n         1 MOL     -0.777449
     67 O11         0.2150   -2.5540    2.6510 o         1 MOL     -0.661314
     68 H28        -2.0970   -2.0940    2.3240 hn        1 MOL     -0.088469
     69 H29        -2.4810   -0.6040    4.9510 h1        1 MOL      0.154596
     70 H30        -0.8820   -2.2030    5.1150 hc        1 MOL      0.065025
     71 H31        -0.0390   -0.7510    5.3770 hc        1 MOL      0.065025
     72 H32         1.9430   -0.4810    4.1610 hn        1 MOL      0.376198
     73 H33         2.1550   -1.4030    2.6450 hn        1 MOL      0.376198
     74 N8         -1.8700    0.5720    2.0050 n         1 MOL     -0.294422
     75 C23        -1.9680    1.8250    1.3420 c3        1 MOL     -0.188666
     76 C24        -0.5610    2.4570    1.1570 c         1 MOL      0.545044
     77 O12         0.3310    2.0950    1.9320 o         1 MOL     -0.506624
     78 H34        -1.7140   -0.2840    1.4860 hn        1 MOL      0.315058
     79 H35        -2.6230    2.4910    1.9040 h1        1 MOL      0.126212
     80 H36        -2.3290    1.7220    0.3190 h1        1 MOL      0.126212
     81 N9         -0.5340    3.4100    0.2340 n         1 MOL     -0.392348
     82 C25         0.7630    3.9880   -0.2100 c3        1 MOL      0.023008
     83 C26         1.8660    3.0190   -0.7530 c         1 MOL      0.426667
     84 O13         1.6530    1.8400   -0.9850 o         1 MOL     -0.481058
     85 C27         0.5490    5.1660   -1.2630 c3        1 MOL     -0.086775
     86 C28        -0.4010    6.1230   -0.6240 ca        1 MOL      0.043111
     87 C29        -1.7410    6.3600   -1.0950 ca        1 MOL     -0.212604
     88 C30         0.1450    7.0120    0.3370 ca        1 MOL     -0.212604
     89 C31        -2.5170    7.3630   -0.4180 ca        1 MOL     -0.124188
     90 C32        -0.5840    8.0500    0.9100 ca        1 MOL     -0.124188
     91 C33        -1.9130    8.2950    0.4340 ca        1 MOL      0.195010
     92 O14        -2.5970    9.3030    1.0350 oh        1 MOL     -0.441548
     93 H37        -1.4490    3.6190   -0.1530 hn        1 MOL      0.285404
     94 H38         1.1990    4.4050    0.7020 h1        1 MOL      0.078600
     95 H39         0.0290    4.7830   -2.1370 hc        1 MOL      0.068888
     96 H40         1.4420    5.6170   -1.6790 hc        1 MOL      0.068888
     97 H41        -2.0020    5.6910   -1.8930 ha        1 MOL      0.124513
     98 H42         1.1370    6.9670    0.7580 ha        1 MOL      0.124513
     99 H43        -3.5250    7.5610   -0.7460 ha        1 MOL      0.132596
    100 H44        -0.0910    8.7130    1.6210 ha        1 MOL      0.132596
    101 H45        -2.0450    9.9910    1.4160 ho        1 MOL      0.363124
    102 N10         3.0890    3.5590   -0.9570 n         1 MOL     -0.451452
    103 C34         4.1540    2.8450   -1.4890 c3        1 MOL     -0.090645
    104 C35         5.0130    2.4760   -0.2760 c         1 MOL      0.614028
    105 O15         5.4560    1.3240   -0.2320 o         1 MOL     -0.554048
    106 C36         4.9040    3.6610   -2.5760 c3        1 MOL      0.107186
    107 C37         4.0180    4.3630   -3.5620 c3        1 MOL      0.239379
    108 C38         5.7880    2.7540   -3.4440 c3        1 MOL     -0.469777
    109 C39         3.1770    3.5240   -4.4900 c3        1 MOL     -0.232050
    110 H46         3.2090    4.5490   -0.8020 hn        1 MOL      0.272403
    111 H47         3.8110    1.9540   -2.0170 h1        1 MOL      0.134632
    112 H48         5.5160    4.4250   -2.0910 hc        1 MOL     -0.028620
    113 H49         4.6560    5.0690   -4.0950 hc        1 MOL     -0.056552
    114 H50         3.4190    5.0450   -2.9590 hc        1 MOL     -0.056552
    115 H51         6.5550    2.3010   -2.8150 hc        1 MOL      0.120822
    116 H52         5.2600    1.9560   -3.9680 hc        1 MOL      0.120822
    117 H53         6.2580    3.3240   -4.2510 hc        1 MOL      0.120822
    118 H54         3.7100    3.0370   -5.3160 hc        1 MOL      0.068269
    119 H55         2.6230    2.7330   -3.9860 hc        1 MOL      0.068269
    120 H56         2.4300    4.1950   -4.9060 hc        1 MOL      0.068269
    121 N11         5.3780    3.3860    0.6210 n         1 MOL     -0.389785
    122 C40         6.4510    3.1770    1.6610 c3        1 MOL      0.000385
    123 C41         7.7300    2.4060    1.2270 c         1 MOL      0.359713
    124 O16         8.3610    1.7740    2.0490 o         1 MOL     -0.435430
    125 C42         6.9970    4.5020    2.1890 c3        1 MOL      0.097216
    126 O17         5.9590    5.1280    2.8930 oh        1 MOL     -0.597813
    127 H57         4.8980    4.2720    0.5570 hn        1 MOL      0.284315
    128 H58         5.9730    2.6210    2.4740 h1        1 MOL      0.131925
    129 H59         7.2890    5.1950    1.4050 h1        1 MOL      0.057886
    130 H60         7.8090    4.3040    2.8950 h1        1 MOL      0.057886
    131 H61         6.3840    5.6660    3.5640 ho        1 MOL      0.410564
    132 N12         8.1480    2.6800   -0.0200 n         1 MOL     -0.371852
    133 C43         9.3410    2.1510   -0.6820 c3        1 MOL      0.304205
    134 C44         9.5790    0.5840   -0.3860 c         1 MOL      0.431163
    135 O18        10.7190    0.1130   -0.2760 o         1 MOL     -0.500657
    136 C45        10.4620    3.0700   -0.3460 c3        1 MOL     -0.495939
    137 H62         7.6710    3.3820   -0.5740 hn        1 MOL      0.244595
    138 H63         9.2590    2.1720   -1.7740 h1        1 MOL      0.045535
    139 H64        11.2890    2.9930   -1.0520 hc        1 MOL      0.130083
    140 H65        10.0960    4.0730   -0.5770 hc        1 MOL      0.130083
    141 H66        10.6660    2.9570    0.7160 hc        1 MOL      0.130083
    142 N13         8.4840   -0.1690   -0.2070 n         1 MOL     -0.617719
    143 C46         8.5030   -1.5700    0.1440 c3        1 MOL      0.618875
    144 C47         7.6080   -2.3740   -0.7820 c         1 MOL      0.363008
    145 O19         6.7070   -1.8410   -1.3100 o         1 MOL     -0.453690
    146 C48         7.9600   -1.7840    1.6070 c3        1 MOL     -0.322920
    147 H67         7.5540    0.2220   -0.2210 hn        1 MOL      0.274651
    148 H68         9.5520   -1.8710    0.0340 h1        1 MOL     -0.076698
    149 H69         6.9760   -1.3180    1.6660 hc        1 MOL      0.086052
    150 H70         7.9400   -2.8650    1.7800 hc        1 MOL      0.086052
    151 H71         8.6070   -1.3630    2.3650 hc        1 MOL      0.086052
    152 N14         7.8790   -3.6930   -0.9020 n         1 MOL     -0.546533
    153 C49         7.0320   -4.6780   -1.6300 c3        1 MOL      0.281666
    154 C50         6.6130   -4.2330   -3.0830 c         1 MOL      0.203756
    155 O20         5.4510   -4.4190   -3.4800 o         1 MOL     -0.441541
    156 C51         5.7530   -5.1170   -0.7680 c3        1 MOL      0.233234
    157 C52         6.1180   -5.5270    0.6880 c3        1 MOL     -0.197386
    158 C53         4.8570   -5.6780    1.5100 c         1 MOL      0.847234
    159 O21         4.1780   -6.6580    1.3990 o         1 MOL     -0.753251
    160 O22         4.4560   -4.6930    2.1660 o         1 MOL     -0.753251
    161 H72         8.7010   -3.9700   -0.3810 hn        1 MOL      0.276797
    162 H73         7.6630   -5.5470   -1.7950 h1        1 MOL     -0.005863
    163 H74         5.2170   -5.9030   -1.2950 hc        1 MOL     -0.071811
    164 H75         5.0580   -4.3110   -0.5500 hc        1 MOL     -0.071811
    165 H76         6.7470   -4.7180    1.0770 hc        1 MOL     -0.014310
    166 H77         6.7110   -6.4440    0.6550 hc        1 MOL     -0.014310
    167 N15         7.5060   -3.5600   -3.7600 n         1 MOL     -0.093889
    168 C54         7.2810   -2.8980   -4.9950 c3        1 MOL     -0.319142
    169 H78         6.5770   -2.0800   -4.8450 h1        1 MOL      0.126076
    170 H79         8.2230   -2.5000   -5.3720 h1        1 MOL      0.126076
    171 H80         6.8690   -3.6030   -5.7160 h1        1 MOL      0.126076
    172 H81         8.4160   -3.4590   -3.3450 hn        1 MOL      0.188403
    173 Ca1         0.5000   -3.1160    0.0860 Ca        1 MOL      1.786938
    174 O23         1.3430   -0.4580    0.4080 oh        1 MOL     -0.840734
    175 H82         1.6420    0.1610   -0.2600 ho        1 MOL      0.413676
    176 H83         1.1880    0.0850    1.1810 ho        1 MOL      0.413676
    177 O24         2.0690   -2.6710   -2.0430 oh        1 MOL     -0.840734
    178 H84         2.4220   -3.3040   -2.6720 ho        1 MOL      0.413676
    179 H85         2.7520   -2.0110   -1.9570 ho        1 MOL      0.413676
    180 O25         3.0130   -2.8680    0.9100 oh        1 MOL     -0.840734
    181 H86         3.6440   -2.1490    0.8480 ho        1 MOL      0.413676
    182 H87         3.4660   -3.5380    1.4210 ho        1 MOL      0.413676
    183 O26        -1.1660   -4.8760    1.1380 oh        1 MOL     -0.840734
    184 H88        -1.6280   -5.6880    0.9260 ho        1 MOL      0.413676
    185 H89        -1.2150   -4.8180    2.0930 ho        1 MOL      0.413676
    186 O27         2.0610   -5.5560    0.0920 oh        1 MOL     -0.840734
    187 H90         1.4900   -6.3000   -0.1130 ho        1 MOL      0.413676
    188 H91         2.8630   -5.9590    0.4380 ho        1 MOL      0.413676
    189 O28        -0.5660   -4.8410   -1.5900 oh        1 MOL     -0.840734
    190 H92        -0.8380   -5.1170   -2.4570 ho        1 MOL      0.413676
    191 H93        -1.2000   -5.2460   -0.9940 ho        1 MOL      0.413676
@<TRIPOS>BOND
     1    1    2 1   
     2    1    4 1   
     3    1    5 1   
     4    1    6 1   
     5    2    3 2   
     6    2    7 1   
     7    7    8 1   
     8    7   15 1   
     9    8    9 1   
    10    8   11 1   
    11    8   16 1   
    12    9   10 2   
    13    9   19 1   
    14   11   12 1   
    15   11   17 1   
    16   11   18 1   
    17   12   13 1   
    18   12   14 1   
    19   19   20 1   
    20   19   28 1   
    21   20   21 1   
    22   20   23 1   
    23   20   29 1   
    24   21   22 2   
    25   21   41 1   
    26   23   24 1   
    27   23   30 1   
    28   23   31 1   
    29   24   25 1   
    30   24   32 1   
    31   24   33 1   
    32   25   26 1   
    33   25   34 1   
    34   25   35 1   
    35   26   27 1   
    36   26   36 1   
    37   26   37 1   
    38   27   38 1   
    39   27   39 1   
    40   27   40 1   
    41   41   42 1   
    42   41   49 1   
    43   42   43 1   
    44   42   45 1   
    45   42   50 1   
    46   43   44 2   
    47   43   53 1   
    48   45   46 1   
    49   45   51 1   
    50   45   52 1   
    51   46   47 1   
    52   46   48 1   
    53   53   54 1   
    54   53   57 1   
    55   54   55 1   
    56   54   58 1   
    57   54   59 1   
    58   55   56 2   
    59   55   60 1   
    60   60   61 1   
    61   60   68 1   
    62   61   62 1   
    63   61   64 1   
    64   61   69 1   
    65   62   63 2   
    66   62   74 1   
    67   64   65 1   
    68   64   70 1   
    69   64   71 1   
    70   65   66 1   
    71   65   67 2   
    72   66   72 1   
    73   66   73 1   
    74   74   75 1   
    75   74   78 1   
    76   75   76 1   
    77   75   79 1   
    78   75   80 1   
    79   76   77 2   
    80   76   81 1   
    81   81   82 1   
    82   81   93 1   
    83   82   83 1   
    84   82   85 1   
    85   82   94 1   
    86   83   84 2   
    87   83  102 1   
    88   85   86 1   
    89   85   95 1   
    90   85   96 1   
    91   86   87 ar  
    92   86   88 ar  
    93   87   89 ar  
    94   87   97 1   
    95   88   90 ar  
    96   88   98 1   
    97   89   91 ar  
    98   89   99 1   
    99   90   91 ar  
   100   90  100 1   
   101   91   92 1   
   102   92  101 1   
   103  102  103 1   
   104  102  110 1   
   105  103  104 1   
   106  103  106 1   
   107  103  111 1   
   108  104  105 2   
   109  104  121 1   
   110  106  107 1   
   111  106  108 1   
   112  106  112 1   
   113  107  109 1   
   114  107  113 1   
   115  107  114 1   
   116  108  115 1   
   117  108  116 1   
   118  108  117 1   
   119  109  118 1   
   120  109  119 1   
   121  109  120 1   
   122  121  122 1   
   123  121  127 1   
   124  122  123 1   
   125  122  125 1   
   126  122  128 1   
   127  123  124 2   
   128  123  132 1   
   129  125  126 1   
   130  125  129 1   
   131  125  130 1   
   132  126  131 1   
   133  132  133 1   
   134  132  137 1   
   135  133  134 1   
   136  133  136 1   
   137  133  138 1   
   138  134  135 2   
   139  134  142 1   
   140  136  139 1   
   141  136  140 1   
   142  136  141 1   
   143  142  143 1   
   144  142  147 1   
   145  143  144 1   
   146  143  146 1   
   147  143  148 1   
   148  144  145 2   
   149  144  152 1   
   150  146  149 1   
   151  146  150 1   
   152  146  151 1   
   153  152  153 1   
   154  152  161 1   
   155  153  154 1   
   156  153  156 1   
   157  153  162 1   
   158  154  155 2   
   159  154  167 1   
   160  156  157 1   
   161  156  163 1   
   162  156  164 1   
   163  157  158 1   
   164  157  165 1   
   165  157  166 1   
   166  158  159 1   
   167  158  160 1   
   168  167  168 1   
   169  167  172 1   
   170  168  169 1   
   171  168  170 1   
   172  168  171 1   
   173  174  175 1   
   174  174  176 1   
   175  177  178 1   
   176  177  179 1   
   177  180  181 1   
   178  180  182 1   
   179  183  184 1   
   180  183  185 1   
   181  186  187 1   
   182  186  188 1   
   183  189  190 1   
   184  189  191 1   
@<TRIPOS>SUBSTRUCTURE
     1 MOL         1 TEMP              0 ****  ****    0 ROOT
