@<TRIPOS>MOLECULE
MOL
  179   176     1     0     0
SMALL
resp


@<TRIPOS>ATOM
      1 C1          2.5390    1.0910    6.6240 c3        1 MOL     -0.338928
      2 C2          2.2650    1.3480    5.0650 c         1 MOL      0.761953
      3 O1          3.1300    1.1280    4.2840 o         1 MOL     -0.587390
      4 H1          1.9460    0.2410    6.9610 hc        1 MOL      0.082464
      5 H2          3.5960    0.8790    6.7770 hc        1 MOL      0.082464
      6 H3          2.2590    1.9780    7.1930 hc        1 MOL      0.082464
      7 N1          1.1630    1.9670    4.7090 n         1 MOL     -0.660418
      8 C3          0.8250    2.1010    3.3390 c3        1 MOL      0.090630
      9 C4          1.2880    3.5070    2.7660 c         1 MOL      0.780307
     10 O2          0.9490    4.5770    3.2360 o         1 MOL     -0.574825
     11 C5         -0.6340    1.7870    3.0940 c3        1 MOL     -0.218110
     12 C6         -1.1280    1.7910    1.6650 c         1 MOL      0.644086
     13 O3         -2.2700    1.4960    1.3910 o         1 MOL     -0.728868
     14 O4         -0.2930    1.9320    0.7480 o         1 MOL     -0.728868
     15 H4          0.4800    2.0890    5.4510 hn        1 MOL      0.333531
     16 H5          1.3670    1.3270    2.7860 h1        1 MOL     -0.017904
     17 H6         -1.0840    2.6300    3.6090 hc        1 MOL      0.059256
     18 H7         -0.7980    0.8290    3.5940 hc        1 MOL      0.059256
     19 N2          2.1590    3.3310    1.7400 n         1 MOL     -0.659610
     20 C7          2.7980    4.5270    1.0660 c3        1 MOL      0.191791
     21 C8          1.8060    5.2260    0.1400 c         1 MOL      0.356486
     22 O5          2.1090    6.4170   -0.1020 o         1 MOL     -0.543098
     23 C9          4.0190    3.9590    0.3120 c3        1 MOL     -0.138494
     24 C10         4.5560    4.9150   -0.8040 c3        1 MOL     -0.050430
     25 C11         5.9290    4.4540   -1.4760 c3        1 MOL     -0.064009
     26 C12         6.2650    5.3160   -2.6760 c3        1 MOL      0.002332
     27 N3          7.4610    4.7070   -3.3420 n4        1 MOL     -0.191597
     28 H8          2.2760    2.4170    1.3290 hn        1 MOL      0.364944
     29 H9          3.0770    5.2540    1.8310 h1        1 MOL      0.086294
     30 H10         3.7180    3.0400   -0.1840 hc        1 MOL      0.062043
     31 H11         4.7770    3.7860    1.0690 hc        1 MOL      0.062043
     32 H12         4.7330    5.8620   -0.2990 hc        1 MOL      0.047238
     33 H13         3.6960    5.1030   -1.4440 hc        1 MOL      0.047238
     34 H14         5.7960    3.3970   -1.6870 hc        1 MOL      0.049897
     35 H15         6.7720    4.5760   -0.7920 hc        1 MOL      0.049897
     36 H16         6.5640    6.2750   -2.2440 hx        1 MOL      0.089993
     37 H17         5.4610    5.4160   -3.4010 hx        1 MOL      0.089993
     38 H18         7.9220    5.2450   -4.0640 hn        1 MOL      0.247131
     39 H19         8.1720    4.5380   -2.6370 hn        1 MOL      0.247131
     40 H20         7.1400    3.8410   -3.7430 hn        1 MOL      0.247131
     41 N4          0.7920    4.4950   -0.3840 n         1 MOL     -0.216180
     42 C13        -0.1330    5.0900   -1.2930 c3        1 MOL      0.021337
     43 C14        -1.5030    5.3370   -0.6640 c         1 MOL      0.375259
     44 O6         -2.3510    6.0080   -1.2800 o         1 MOL     -0.528634
     45 C15        -0.2590    4.3070   -2.6450 c3        1 MOL     -0.392535
     46 C16        -0.6790    2.8330   -2.3020 c         1 MOL      0.845082
     47 O7         -1.7540    2.5890   -1.7780 o         1 MOL     -0.824918
     48 O8          0.1300    1.8940   -2.4170 o         1 MOL     -0.824918
     49 H21         0.7480    3.5100   -0.1600 hn        1 MOL      0.254146
     50 H22         0.2180    6.1090   -1.4970 h1        1 MOL      0.114512
     51 H23         0.6230    4.3210   -3.2850 hc        1 MOL      0.111751
     52 H24        -0.8830    4.8330   -3.3600 hc        1 MOL      0.111751
     53 N5         -1.7180    4.8410    0.5660 n         1 MOL     -0.067331
     54 C17        -3.0300    5.0430    1.2440 c3        1 MOL     -0.310750
     55 C18        -4.2520    4.3450    0.6180 c         1 MOL      0.644336
     56 O9         -5.3390    4.5820    1.1690 o         1 MOL     -0.585303
     57 H25        -0.9350    4.4620    1.0830 hn        1 MOL      0.140525
     58 H26        -3.1960    6.1210    1.3000 h1        1 MOL      0.130526
     59 H27        -2.8890    4.6220    2.2420 h1        1 MOL      0.130526
     60 N6         -4.0530    3.5340   -0.3990 n         1 MOL     -0.430250
     61 C19        -5.1430    2.9110   -1.2300 c3        1 MOL      0.154784
     62 C20        -5.0630    1.4380   -1.4190 c         1 MOL      0.593623
     63 O10        -4.0360    0.7950   -1.1950 o         1 MOL     -0.585247
     64 C21        -5.1540    3.7470   -2.5330 c3        1 MOL     -0.046474
     65 C22        -5.8480    5.1230   -2.3960 c         1 MOL      0.569029
     66 N7         -7.0510    5.1550   -2.8900 n         1 MOL     -0.778148
     67 O11        -5.3060    6.0980   -1.9080 o         1 MOL     -0.474182
     68 H28        -3.1300    3.5390   -0.8070 hn        1 MOL      0.446264
     69 H29        -6.1200    3.0150   -0.7510 h1        1 MOL     -0.005093
     70 H30        -5.5450    3.1550   -3.3530 hc        1 MOL     -0.006394
     71 H31        -4.1400    4.0030   -2.8450 hc        1 MOL     -0.006394
     72 H32        -7.5410    4.3020   -3.1210 hn        1 MOL      0.355628
     73 H33        -7.4230    6.0850   -3.0120 hn        1 MOL      0.355628
     74 N8         -6.0410    0.7970   -1.9950 n         1 MOL     -0.391616
     75 C23        -6.0260   -0.6270   -2.2570 c3        1 MOL     -0.005519
     76 C24        -5.7870   -1.4260   -1.0230 c         1 MOL      0.541950
     77 O12        -6.2780   -1.0640    0.0230 o         1 MOL     -0.496909
     78 H34        -6.7870    1.4010   -2.3090 hn        1 MOL      0.253270
     79 H35        -5.3500   -0.8640   -3.0730 h1        1 MOL      0.049989
     80 H36        -6.9880   -0.9800   -2.6350 h1        1 MOL      0.049989
     81 N9         -5.0590   -2.5260   -1.1220 n         1 MOL     -0.496784
     82 C25        -4.7220   -3.3430    0.0850 c3        1 MOL      0.018224
     83 C26        -3.7480   -2.6230    0.9700 c         1 MOL      0.423129
     84 O13        -3.3990   -1.4570    0.7120 o         1 MOL     -0.412917
     85 C27        -4.2410   -4.7180   -0.3890 c3        1 MOL     -0.022842
     86 C28        -5.1960   -5.4690   -1.3600 ca        1 MOL     -0.028081
     87 C29        -4.7810   -5.7760   -2.6900 ca        1 MOL     -0.074579
     88 C30        -6.5160   -5.6770   -0.9970 ca        1 MOL     -0.074579
     89 C31        -5.6850   -6.4230   -3.5400 ca        1 MOL     -0.321706
     90 C32        -7.4470   -6.2570   -1.8750 ca        1 MOL     -0.321706
     91 C33        -7.0330   -6.5430   -3.1970 ca        1 MOL      0.402930
     92 O14        -7.9120   -6.8460   -4.1560 oh        1 MOL     -0.487066
     93 H37        -4.6770   -2.9420   -1.9570 hn        1 MOL      0.273046
     94 H38        -5.6830   -3.4250    0.6080 h1        1 MOL      0.104401
     95 H39        -3.9600   -5.3420    0.4620 hc        1 MOL      0.008038
     96 H40        -3.3330   -4.4920   -0.9410 hc        1 MOL      0.008038
     97 H41        -3.7810   -5.6210   -3.0510 ha        1 MOL      0.117788
     98 H42        -6.8040   -5.4560    0.0220 ha        1 MOL      0.117788
     99 H43        -5.3580   -6.6560   -4.5490 ha        1 MOL      0.165076
    100 H44        -8.5110   -6.2200   -1.6770 ha        1 MOL      0.165076
    101 H45        -8.7880   -7.0030   -3.7820 ho        1 MOL      0.377122
    102 N10        -3.1980   -3.3100    2.0280 n         1 MOL     -0.573265
    103 C34        -2.3650   -2.6770    3.0620 c3        1 MOL      0.076077
    104 C35        -1.0340   -2.1080    2.5920 c         1 MOL      0.467242
    105 O15        -0.8100   -1.4330    1.5790 o         1 MOL     -0.447089
    106 C36        -3.2200   -1.8240    4.0580 c3        1 MOL      0.420435
    107 C37        -2.6410   -1.7980    5.4980 c3        1 MOL     -0.063292
    108 C38        -4.7280   -2.0570    4.0480 c3        1 MOL     -0.365077
    109 C39        -3.0880   -3.0370    6.3450 c3        1 MOL     -0.397854
    110 H46        -3.6320   -4.1900    2.2340 hn        1 MOL      0.332082
    111 H47        -1.9930   -3.5560    3.5990 h1        1 MOL      0.036399
    112 H48        -3.0930   -0.7730    3.7680 hc        1 MOL     -0.059403
    113 H49        -3.1290   -0.9320    5.9620 hc        1 MOL      0.041390
    114 H50        -1.5910   -1.4940    5.5780 hc        1 MOL      0.041390
    115 H51        -4.9420   -3.1130    4.2090 hc        1 MOL      0.093539
    116 H52        -5.2010   -1.4170    4.7910 hc        1 MOL      0.093539
    117 H53        -5.2080   -1.7020    3.1310 hc        1 MOL      0.093539
    118 H54        -2.8440   -2.8880    7.4050 hc        1 MOL      0.095722
    119 H55        -4.1820   -3.0800    6.4510 hc        1 MOL      0.095722
    120 H56        -2.6790   -3.9610    5.9530 hc        1 MOL      0.095722
    121 N11         0.0480   -2.5610    3.2290 n         1 MOL     -0.499082
    122 C40         1.3620   -1.9580    3.2160 c3        1 MOL      0.000187
    123 C41         2.1550   -2.1340    1.9410 c         1 MOL      0.491666
    124 O16         3.2920   -1.6230    1.8420 o         1 MOL     -0.559495
    125 C42         2.1360   -2.3960    4.4790 c3        1 MOL      0.064482
    126 O17         1.2780   -2.2370    5.5840 oh        1 MOL     -0.651482
    127 H57        -0.1470   -3.2710    3.9260 hn        1 MOL      0.301545
    128 H58         1.3200   -0.8710    3.3260 h1        1 MOL      0.259038
    129 H59         3.0360   -1.8020    4.6340 h1        1 MOL      0.077678
    130 H60         2.4390   -3.4360    4.4230 h1        1 MOL      0.077678
    131 H61         1.7280   -2.4670    6.4030 ho        1 MOL      0.429169
    132 N12         1.6400   -2.7060    0.8720 n         1 MOL     -0.441422
    133 C43         2.2920   -2.6430   -0.4160 c3        1 MOL      0.168769
    134 C44         1.9790   -1.2520   -1.1160 c         1 MOL      0.661168
    135 O18         0.8400   -0.8470   -0.9650 o         1 MOL     -0.657268
    136 C45         1.7560   -3.8400   -1.2270 c3        1 MOL     -0.260930
    137 H62         0.7300   -3.1280    0.8780 hn        1 MOL      0.277488
    138 H63         3.3630   -2.8120   -0.3210 h1        1 MOL      0.107359
    139 H64         2.2510   -3.7800   -2.1850 hc        1 MOL      0.062903
    140 H65         1.9980   -4.8160   -0.8050 hc        1 MOL      0.062903
    141 H66         0.7000   -3.8140   -1.4930 hc        1 MOL      0.062903
    142 N13         2.9390   -0.5470   -1.6870 n         1 MOL     -0.554892
    143 C46         4.3640   -0.9120   -1.8940 c3        1 MOL      0.058583
    144 C47         4.6480   -2.2400   -2.6450 c         1 MOL      0.633058
    145 O19         4.0020   -2.6420   -3.6010 o         1 MOL     -0.562576
    146 C48         5.1250    0.3150   -2.4260 c3        1 MOL     -0.203346
    147 H67         2.6320    0.3530   -2.0390 hn        1 MOL      0.373650
    148 H68         4.7430   -1.2490   -0.9280 h1        1 MOL      0.082379
    149 H69         6.2050    0.2010   -2.4070 hc        1 MOL      0.064290
    150 H70         4.7880    0.5030   -3.4490 hc        1 MOL      0.064290
    151 H71         4.8590    1.2240   -1.8910 hc        1 MOL      0.064290
    152 N14         5.5730   -3.0910   -2.1450 n         1 MOL     -0.638371
    153 C49         6.6720   -2.6980   -1.2340 c3        1 MOL      0.060196
    154 C50         6.8460   -3.9300   -0.2550 c         1 MOL      0.410884
    155 O20         6.6830   -3.8240    0.9610 o         1 MOL     -0.493421
    156 C51         7.9160   -2.4540   -2.0970 c3        1 MOL      0.046754
    157 C52         9.1390   -2.3380   -1.1970 c3        1 MOL     -0.509584
    158 C53        10.4500   -2.0780   -1.9920 c         1 MOL      0.794183
    159 O21        11.1520   -1.0610   -1.7810 o         1 MOL     -0.692641
    160 O22        10.9160   -2.9020   -2.7580 o         1 MOL     -0.692641
    161 H72         5.6230   -3.9800   -2.6290 hn        1 MOL      0.321135
    162 H73         6.4490   -1.8490   -0.5920 h1        1 MOL      0.097958
    163 H74         7.8180   -1.5300   -2.6680 hc        1 MOL      0.029560
    164 H75         8.1190   -3.2080   -2.8570 hc        1 MOL      0.029560
    165 H76         9.3250   -3.3290   -0.7690 hc        1 MOL      0.129620
    166 H77         8.9970   -1.5770   -0.4330 hc        1 MOL      0.129620
    167 N15         7.1280   -5.1310   -0.7570 n         1 MOL     -0.272858
    168 C54         7.4330   -6.2560    0.1330 c3        1 MOL     -0.221840
    169 H78         6.5470   -6.5080    0.7170 h1        1 MOL      0.114052
    170 H79         7.7330   -7.1200   -0.4610 h1        1 MOL      0.114052
    171 H80         8.2450   -5.9780    0.8060 h1        1 MOL      0.114052
    172 H81         7.2630   -5.1040   -1.7550 hn        1 MOL      0.271165
    173 Ca1        -1.5830    0.0820   -0.8550 Ca        1 MOL      1.819401
    174 O23        -1.3510   -2.5250   -1.6610 oh        1 MOL     -0.853122
    175 H82        -1.9670   -2.8560   -2.3210 ho        1 MOL      0.421165
    176 H83        -0.7390   -3.2500   -1.5190 ho        1 MOL      0.421165
    177 O24        -2.4110    0.0410   -3.5080 oh        1 MOL     -0.853122
    178 H84        -1.9120   -0.4800   -4.1340 ho        1 MOL      0.421165
    179 H85        -2.7890    0.7490   -4.0280 ho        1 MOL      0.421165
@<TRIPOS>BOND
     1    1    2 1   
     2    1    4 1   
     3    1    5 1   
     4    1    6 1   
     5    2    3 2   
     6    2    7 1   
     7    7    8 1   
     8    7   15 1   
     9    8    9 1   
    10    8   11 1   
    11    8   16 1   
    12    9   10 2   
    13    9   19 1   
    14   11   12 1   
    15   11   17 1   
    16   11   18 1   
    17   12   13 1   
    18   12   14 1   
    19   19   20 1   
    20   19   28 1   
    21   20   21 1   
    22   20   23 1   
    23   20   29 1   
    24   21   22 2   
    25   21   41 1   
    26   23   24 1   
    27   23   30 1   
    28   23   31 1   
    29   24   25 1   
    30   24   32 1   
    31   24   33 1   
    32   25   26 1   
    33   25   34 1   
    34   25   35 1   
    35   26   27 1   
    36   26   36 1   
    37   26   37 1   
    38   27   38 1   
    39   27   39 1   
    40   27   40 1   
    41   41   42 1   
    42   41   49 1   
    43   42   43 1   
    44   42   45 1   
    45   42   50 1   
    46   43   44 2   
    47   43   53 1   
    48   45   46 1   
    49   45   51 1   
    50   45   52 1   
    51   46   47 1   
    52   46   48 1   
    53   53   54 1   
    54   53   57 1   
    55   54   55 1   
    56   54   58 1   
    57   54   59 1   
    58   55   56 2   
    59   55   60 1   
    60   60   61 1   
    61   60   68 1   
    62   61   62 1   
    63   61   64 1   
    64   61   69 1   
    65   62   63 2   
    66   62   74 1   
    67   64   65 1   
    68   64   70 1   
    69   64   71 1   
    70   65   66 1   
    71   65   67 2   
    72   66   72 1   
    73   66   73 1   
    74   74   75 1   
    75   74   78 1   
    76   75   76 1   
    77   75   79 1   
    78   75   80 1   
    79   76   77 2   
    80   76   81 1   
    81   81   82 1   
    82   81   93 1   
    83   82   83 1   
    84   82   85 1   
    85   82   94 1   
    86   83   84 2   
    87   83  102 1   
    88   85   86 1   
    89   85   95 1   
    90   85   96 1   
    91   86   87 ar  
    92   86   88 ar  
    93   87   89 ar  
    94   87   97 1   
    95   88   90 ar  
    96   88   98 1   
    97   89   91 ar  
    98   89   99 1   
    99   90   91 ar  
   100   90  100 1   
   101   91   92 1   
   102   92  101 1   
   103  102  103 1   
   104  102  110 1   
   105  103  104 1   
   106  103  106 1   
   107  103  111 1   
   108  104  105 2   
   109  104  121 1   
   110  106  107 1   
   111  106  108 1   
   112  106  112 1   
   113  107  109 1   
   114  107  113 1   
   115  107  114 1   
   116  108  115 1   
   117  108  116 1   
   118  108  117 1   
   119  109  118 1   
   120  109  119 1   
   121  109  120 1   
   122  121  122 1   
   123  121  127 1   
   124  122  123 1   
   125  122  125 1   
   126  122  128 1   
   127  123  124 2   
   128  123  132 1   
   129  125  126 1   
   130  125  129 1   
   131  125  130 1   
   132  126  131 1   
   133  132  133 1   
   134  132  137 1   
   135  133  134 1   
   136  133  136 1   
   137  133  138 1   
   138  134  135 2   
   139  134  142 1   
   140  136  139 1   
   141  136  140 1   
   142  136  141 1   
   143  142  143 1   
   144  142  147 1   
   145  143  144 1   
   146  143  146 1   
   147  143  148 1   
   148  144  145 2   
   149  144  152 1   
   150  146  149 1   
   151  146  150 1   
   152  146  151 1   
   153  152  153 1   
   154  152  161 1   
   155  153  154 1   
   156  153  156 1   
   157  153  162 1   
   158  154  155 2   
   159  154  167 1   
   160  156  157 1   
   161  156  163 1   
   162  156  164 1   
   163  157  158 1   
   164  157  165 1   
   165  157  166 1   
   166  158  159 1   
   167  158  160 1   
   168  167  168 1   
   169  167  172 1   
   170  168  169 1   
   171  168  170 1   
   172  168  171 1   
   173  174  175 1   
   174  174  176 1   
   175  177  178 1   
   176  177  179 1   
@<TRIPOS>SUBSTRUCTURE
     1 MOL         1 TEMP              0 ****  ****    0 ROOT
