@<TRIPOS>MOLECULE
MOL
  175   173     1     0     0
SMALL
resp


@<TRIPOS>ATOM
      1 C1         -6.9430    8.2290    1.0080 c3        1 MOL     -0.384913
      2 C2         -7.9660    7.3530    0.2590 c         1 MOL      0.673183
      3 O1         -8.2600    7.6770   -0.8680 o         1 MOL     -0.594011
      4 H1         -7.3110    8.4390    2.0120 hc        1 MOL      0.084959
      5 H2         -5.9900    7.7020    1.0730 hc        1 MOL      0.084959
      6 H3         -6.8040    9.1670    0.4690 hc        1 MOL      0.084959
      7 N1         -8.3500    6.2790    0.8740 n         1 MOL     -0.480759
      8 C3         -9.2950    5.2720    0.3240 c3        1 MOL      0.279316
      9 C4         -8.6330    4.0440   -0.2240 c         1 MOL      0.526107
     10 O2         -9.3120    3.2530   -0.8640 o         1 MOL     -0.487507
     11 C5        -10.0730    4.7900    1.5260 c3        1 MOL     -0.254242
     12 C6        -11.2890    3.8960    1.0900 c         1 MOL      0.664492
     13 O3        -11.9600    4.1250    0.0260 o         1 MOL     -0.697573
     14 O4        -11.5280    2.8670    1.7420 o         1 MOL     -0.697573
     15 H4         -8.1600    6.1340    1.8540 hn        1 MOL      0.260589
     16 H5        -10.0350    5.6790   -0.3700 h1        1 MOL      0.002005
     17 H6        -10.5030    5.6150    2.0890 hc        1 MOL      0.020676
     18 H7         -9.3920    4.2020    2.1330 hc        1 MOL      0.020676
     19 N2         -7.3100    3.9540   -0.2130 n         1 MOL     -0.596364
     20 C7         -6.4750    2.9570   -0.9690 c3        1 MOL      0.473858
     21 C8         -5.3750    2.4200   -0.0870 c         1 MOL      0.530073
     22 O5         -4.9530    3.1440    0.7860 o         1 MOL     -0.567229
     23 C9         -5.9370    3.6270   -2.2800 c3        1 MOL     -0.388283
     24 H8         -6.7520    4.6970    0.1930 hn        1 MOL      0.251367
     25 H9         -7.0790    2.1150   -1.3100 h1        1 MOL     -0.052694
     26 H10        -5.0990    3.0240   -2.6420 hc        1 MOL      0.099708
     27 H11        -6.7960    3.8070   -2.9180 hc        1 MOL      0.099708
     28 H12        -5.3910    4.5580   -2.0810 hc        1 MOL      0.099708
     29 N3         -4.9960    1.1570   -0.1860 n         1 MOL     -0.511199
     30 C10        -5.3950    0.0440   -1.1580 c3        1 MOL     -0.019776
     31 C11        -5.4710   -1.3490   -0.5140 c         1 MOL      0.492123
     32 O6         -4.7500   -1.7760    0.3700 o         1 MOL     -0.473866
     33 C12        -4.3830   -0.1030   -2.3150 c3        1 MOL     -0.203200
     34 C13        -3.0140   -0.4580   -1.7700 c         1 MOL      0.875528
     35 O7         -2.4260   -1.4460   -2.1520 o         1 MOL     -0.778248
     36 O8         -2.4270    0.2350   -0.9100 o         1 MOL     -0.778248
     37 H13        -4.2240    0.9320    0.4290 hn        1 MOL      0.319457
     38 H14        -6.3790    0.2570   -1.5580 h1        1 MOL      0.109458
     39 H15        -4.2780    0.8180   -2.8840 hc        1 MOL      0.036105
     40 H16        -4.7330   -0.9050   -2.9650 hc        1 MOL      0.036105
     41 N4         -6.3990   -2.1780   -1.0610 n         1 MOL     -0.433038
     42 C14        -6.5830   -3.5430   -0.5860 c3        1 MOL      0.184485
     43 C15        -6.4160   -4.5900   -1.7020 c         1 MOL      0.550716
     44 O9         -7.4410   -4.8290   -2.3200 o         1 MOL     -0.588728
     45 H17        -7.0040   -1.8520   -1.7990 hn        1 MOL      0.294486
     46 H18        -7.5510   -3.6660   -0.1090 h1        1 MOL     -0.003781
     47 H19        -5.8080   -3.8430    0.1240 h1        1 MOL     -0.003781
     48 N5         -5.2790   -5.1400   -2.0820 n         1 MOL     -0.524636
     49 C16        -3.9940   -4.8160   -1.4350 c3        1 MOL      0.098479
     50 C17        -3.8600   -5.5640   -0.0890 c         1 MOL      0.497264
     51 O10        -4.0030   -6.8020   -0.0220 o         1 MOL     -0.563170
     52 C18        -2.8580   -5.0660   -2.4630 c3        1 MOL     -0.045133
     53 C19        -1.5420   -4.5510   -1.9730 c         1 MOL      0.456090
     54 N6         -0.5340   -4.6450   -2.7420 n         1 MOL     -0.533035
     55 O11        -1.3630   -4.0510   -0.8240 o         1 MOL     -0.639992
     56 H20        -5.3280   -5.6240   -2.9680 hn        1 MOL      0.322539
     57 H21        -4.0040   -3.7570   -1.2030 h1        1 MOL      0.051511
     58 H22        -3.1800   -4.5570   -3.3780 hc        1 MOL      0.044357
     59 H23        -2.8170   -6.1100   -2.7710 hc        1 MOL      0.044357
     60 H24        -0.7190   -5.0460   -3.6510 hn        1 MOL      0.294775
     61 H25         0.3880   -4.4210   -2.3960 hn        1 MOL      0.294775
     62 N7         -3.6180   -4.8440    1.0030 n         1 MOL     -0.165067
     63 C20        -3.3490   -5.3840    2.3890 c3        1 MOL     -0.318231
     64 C21        -1.8490   -5.5640    2.7350 c         1 MOL      0.605988
     65 O12        -1.4950   -5.8510    3.8740 o         1 MOL     -0.599541
     66 H26        -3.5510   -3.8480    0.8030 hn        1 MOL      0.219952
     67 H27        -3.8490   -6.3440    2.5290 h1        1 MOL      0.136993
     68 H28        -3.7540   -4.6530    3.0910 h1        1 MOL      0.136993
     69 N8         -0.9550   -5.2580    1.8160 n         1 MOL     -0.342939
     70 C22         0.4750   -5.3020    1.9680 c3        1 MOL     -0.072910
     71 C23         1.1500   -3.9330    1.8680 c         1 MOL      0.696272
     72 O13         0.7000   -3.1270    1.0580 o         1 MOL     -0.678577
     73 C24         1.0140   -6.3370    1.0550 c3        1 MOL      0.478687
     74 C25         0.8810   -7.7800    1.6030 c3        1 MOL     -0.409665
     75 O14         0.6710   -6.2440   -0.3690 oh        1 MOL     -0.667505
     76 H29        -1.2530   -4.9360    0.9060 hn        1 MOL      0.290767
     77 H30         0.7110   -5.6540    2.9630 h1        1 MOL      0.060832
     78 H31         2.0780   -6.0910    1.0450 h1        1 MOL     -0.053908
     79 H32         1.2420   -5.5730   -0.7480 ho        1 MOL      0.444767
     80 H33         1.2960   -7.7310    2.6080 hc        1 MOL      0.099310
     81 H34        -0.1820   -7.9820    1.5650 hc        1 MOL      0.099310
     82 H35         1.4070   -8.5550    1.0330 hc        1 MOL      0.099310
     83 N9          2.1780   -3.6900    2.6730 n         1 MOL     -0.548177
     84 C26         3.0440   -2.5310    2.4770 c3        1 MOL      0.035526
     85 C27         4.0080   -2.8250    1.2800 c         1 MOL      0.486784
     86 O15         4.7580   -3.7700    1.3350 o         1 MOL     -0.573816
     87 C28         3.7890   -2.1130    3.7570 c3        1 MOL      0.365634
     88 C29         4.9760   -1.1090    3.5930 c3        1 MOL     -0.055746
     89 C30         2.7430   -1.4750    4.6490 c3        1 MOL     -0.642917
     90 C31         4.6600    0.3160    3.0270 c3        1 MOL     -0.258928
     91 H36         2.5120   -4.4080    3.2940 hn        1 MOL      0.301591
     92 H37         2.4500   -1.7050    2.0840 h1        1 MOL      0.117106
     93 H38         4.3180   -2.9470    4.1990 hc        1 MOL     -0.048472
     94 H39         5.6560   -1.6500    2.9280 hc        1 MOL     -0.003402
     95 H40         5.4220   -0.9800    4.5720 hc        1 MOL     -0.003402
     96 H41         2.2690   -2.3440    5.0980 hc        1 MOL      0.156341
     97 H42         3.2930   -0.8810    5.3810 hc        1 MOL      0.156341
     98 H43         2.0230   -0.8070    4.1710 hc        1 MOL      0.156341
     99 H44         5.5820    0.8800    2.8850 hc        1 MOL      0.080696
    100 H45         4.1500    0.1140    2.0820 hc        1 MOL      0.080696
    101 H46         3.9170    0.7990    3.6600 hc        1 MOL      0.080696
    102 N10         3.9870   -2.0290    0.2190 n         1 MOL     -0.225743
    103 C32         4.6080   -2.2420   -1.0900 c3        1 MOL      0.165220
    104 C33         5.7540   -1.2050   -1.3730 c         1 MOL      0.517872
    105 O16         6.5820   -1.3990   -2.2880 o         1 MOL     -0.554851
    106 C34         3.6090   -2.6100   -2.2550 c3        1 MOL     -0.251527
    107 C35         2.3390   -3.4090   -1.8710 c         1 MOL      0.800554
    108 O17         2.4200   -4.5370   -1.4540 o         1 MOL     -0.682584
    109 O18         1.2520   -2.8180   -2.1070 o         1 MOL     -0.682584
    110 H47         3.3060   -1.2900    0.2540 hn        1 MOL      0.066010
    111 H48         5.1720   -3.1650   -1.0180 h1        1 MOL      0.048768
    112 H49         4.1740   -3.0200   -3.0900 hc        1 MOL      0.043635
    113 H50         3.3700   -1.6610   -2.7350 hc        1 MOL      0.043635
    114 N11         5.8900   -0.1220   -0.5560 n         1 MOL     -0.633080
    115 C36         6.9440    0.8710   -0.8530 c3        1 MOL      0.427090
    116 C37         6.5350    2.2060   -0.2600 c         1 MOL      0.424675
    117 O19         6.0750    2.2760    0.8470 o         1 MOL     -0.570514
    118 C38         8.2690    0.3490   -0.1590 c3        1 MOL     -0.293109
    119 C39         9.4690    1.1200   -0.4730 ca        1 MOL      0.094847
    120 C40         9.8280    2.2300    0.3400 ca        1 MOL     -0.149670
    121 C41        10.2410    0.7820   -1.5850 ca        1 MOL     -0.149670
    122 C42        10.9710    2.9990    0.0460 ca        1 MOL     -0.130945
    123 C43        11.3910    1.6230   -1.9260 ca        1 MOL     -0.130945
    124 C44        11.7490    2.6890   -1.0660 ca        1 MOL     -0.134861
    125 H51         5.1890    0.1690    0.1110 hn        1 MOL      0.371091
    126 H52         7.0140    0.8990   -1.9400 h1        1 MOL     -0.006453
    127 H53         8.5010   -0.6730   -0.4740 hc        1 MOL      0.115194
    128 H54         8.1180    0.2600    0.9190 hc        1 MOL      0.115194
    129 H55         9.2910    2.5820    1.2040 ha        1 MOL      0.126703
    130 H56         9.9430   -0.0180   -2.2460 ha        1 MOL      0.126703
    131 H57        11.2830    3.8620    0.6200 ha        1 MOL      0.115889
    132 H58        11.9230    1.3300   -2.8190 ha        1 MOL      0.115889
    133 H59        12.5510    3.3280   -1.4300 ha        1 MOL      0.103061
    134 N12         6.7610    3.2690   -1.0400 n         1 MOL     -0.327420
    135 C45         6.5960    4.6120   -0.4400 c3        1 MOL      0.229598
    136 C46         5.0860    5.1070   -0.3160 c         1 MOL      0.434711
    137 O20         4.8740    6.3170   -0.2270 o         1 MOL     -0.536921
    138 C47         7.4610    5.5710   -1.3190 c3        1 MOL     -0.334342
    139 C48         8.3740    4.6000   -2.1300 c3        1 MOL      0.226607
    140 C49         7.4830    3.3950   -2.3240 c3        1 MOL     -0.046158
    141 H60         7.0430    4.7920    0.5450 h1        1 MOL      0.064357
    142 H61         6.8850    6.2440   -1.9540 hc        1 MOL      0.092372
    143 H62         8.1370    6.1890   -0.7310 hc        1 MOL      0.092372
    144 H63         8.6440    4.9080   -3.1440 hc        1 MOL     -0.032645
    145 H64         9.3060    4.3470   -1.6190 hc        1 MOL     -0.032645
    146 H65         6.7550    3.5610   -3.1220 h1        1 MOL      0.060187
    147 H66         8.1960    2.5700   -2.4580 h1        1 MOL      0.060187
    148 N13         4.0080    4.2990   -0.3620 n         1 MOL     -0.194126
    149 C50         2.6270    4.6740   -0.0610 c3        1 MOL     -0.343628
    150 C51         2.3960    5.3980    1.3060 c         1 MOL      0.613609
    151 O21         1.3910    6.0210    1.5400 o         1 MOL     -0.522690
    152 C52         1.8050    3.2620   -0.1310 c3        1 MOL      0.038973
    153 C53         2.3850    2.0630    0.6380 c3        1 MOL     -0.044731
    154 C54         1.5860    0.8450    0.3220 c         1 MOL      0.727416
    155 O22         0.4270    0.6800    0.7760 o         1 MOL     -0.754180
    156 O23         2.0570   -0.0690   -0.3250 o         1 MOL     -0.754180
    157 H67         4.1960    3.3130   -0.4910 hn        1 MOL      0.150691
    158 H68         2.1860    5.2890   -0.8510 h1        1 MOL      0.183296
    159 H69         1.6690    2.9890   -1.1710 hc        1 MOL      0.046280
    160 H70         0.7400    3.3980    0.0640 hc        1 MOL      0.046280
    161 H71         2.2110    2.3650    1.6740 hc        1 MOL      0.000211
    162 H72         3.4530    1.9340    0.4220 hc        1 MOL      0.000211
    163 N14         3.3860    5.4010    2.2800 n         1 MOL     -0.289438
    164 C55         3.4150    6.1380    3.5720 c3        1 MOL     -0.048187
    165 H73         2.4670    6.6560    3.7160 h1        1 MOL      0.055595
    166 H74         3.5710    5.4340    4.3900 h1        1 MOL      0.055595
    167 H75         4.2260    6.8650    3.5580 h1        1 MOL      0.055595
    168 H76         4.2670    4.9450    2.0760 hn        1 MOL      0.196372
    169 Ca1        -0.3980   -1.3740   -0.6270 Ca        1 MOL      1.795615
    170 O24         0.3330   -0.1760   -2.8400 oh        1 MOL     -0.852410
    171 H77         1.0460   -0.6480   -3.2790 ho        1 MOL      0.403196
    172 H78         0.5030    0.7460   -3.0430 ho        1 MOL      0.403196
    173 O25        -2.3520   -1.4350    1.4300 oh        1 MOL     -0.852410
    174 H79        -2.1990   -0.5760    1.8260 ho        1 MOL      0.403196
    175 H80        -3.3030   -1.5320    1.4100 ho        1 MOL      0.403196
@<TRIPOS>BOND
     1    1    2 1   
     2    1    4 1   
     3    1    5 1   
     4    1    6 1   
     5    2    3 2   
     6    2    7 1   
     7    7    8 1   
     8    7   15 1   
     9    8    9 1   
    10    8   11 1   
    11    8   16 1   
    12    9   10 2   
    13    9   19 1   
    14   11   12 1   
    15   11   17 1   
    16   11   18 1   
    17   12   13 1   
    18   12   14 1   
    19   19   20 1   
    20   19   24 1   
    21   20   21 1   
    22   20   23 1   
    23   20   25 1   
    24   21   22 2   
    25   21   29 1   
    26   23   26 1   
    27   23   27 1   
    28   23   28 1   
    29   29   30 1   
    30   29   37 1   
    31   30   31 1   
    32   30   33 1   
    33   30   38 1   
    34   31   32 2   
    35   31   41 1   
    36   33   34 1   
    37   33   39 1   
    38   33   40 1   
    39   34   35 1   
    40   34   36 1   
    41   41   42 1   
    42   41   45 1   
    43   42   43 1   
    44   42   46 1   
    45   42   47 1   
    46   43   44 2   
    47   43   48 1   
    48   48   49 1   
    49   48   56 1   
    50   49   50 1   
    51   49   52 1   
    52   49   57 1   
    53   50   51 2   
    54   50   62 1   
    55   52   53 1   
    56   52   58 1   
    57   52   59 1   
    58   53   54 1   
    59   53   55 2   
    60   54   60 1   
    61   54   61 1   
    62   62   63 1   
    63   62   66 1   
    64   63   64 1   
    65   63   67 1   
    66   63   68 1   
    67   64   65 2   
    68   64   69 1   
    69   69   70 1   
    70   69   76 1   
    71   70   71 1   
    72   70   73 1   
    73   70   77 1   
    74   71   72 2   
    75   71   83 1   
    76   73   74 1   
    77   73   75 1   
    78   73   78 1   
    79   74   80 1   
    80   74   81 1   
    81   74   82 1   
    82   75   79 1   
    83   83   84 1   
    84   83   91 1   
    85   84   85 1   
    86   84   87 1   
    87   84   92 1   
    88   85   86 2   
    89   85  102 1   
    90   87   88 1   
    91   87   89 1   
    92   87   93 1   
    93   88   90 1   
    94   88   94 1   
    95   88   95 1   
    96   89   96 1   
    97   89   97 1   
    98   89   98 1   
    99   90   99 1   
   100   90  100 1   
   101   90  101 1   
   102  102  103 1   
   103  102  110 1   
   104  103  104 1   
   105  103  106 1   
   106  103  111 1   
   107  104  105 2   
   108  104  114 1   
   109  106  107 1   
   110  106  112 1   
   111  106  113 1   
   112  107  108 1   
   113  107  109 1   
   114  114  115 1   
   115  114  125 1   
   116  115  116 1   
   117  115  118 1   
   118  115  126 1   
   119  116  117 2   
   120  116  134 1   
   121  118  119 1   
   122  118  127 1   
   123  118  128 1   
   124  119  120 ar  
   125  119  121 ar  
   126  120  122 ar  
   127  120  129 1   
   128  121  123 ar  
   129  121  130 1   
   130  122  124 ar  
   131  122  131 1   
   132  123  124 ar  
   133  123  132 1   
   134  124  133 1   
   135  134  135 1   
   136  134  140 1   
   137  135  136 1   
   138  135  138 1   
   139  135  141 1   
   140  136  137 2   
   141  136  148 1   
   142  138  139 1   
   143  138  142 1   
   144  138  143 1   
   145  139  140 1   
   146  139  144 1   
   147  139  145 1   
   148  140  146 1   
   149  140  147 1   
   150  148  149 1   
   151  148  157 1   
   152  149  150 1   
   153  149  152 1   
   154  149  158 1   
   155  150  151 2   
   156  150  163 1   
   157  152  153 1   
   158  152  159 1   
   159  152  160 1   
   160  153  154 1   
   161  153  161 1   
   162  153  162 1   
   163  154  155 1   
   164  154  156 1   
   165  163  164 1   
   166  163  168 1   
   167  164  165 1   
   168  164  166 1   
   169  164  167 1   
   170  170  171 1   
   171  170  172 1   
   172  173  174 1   
   173  173  175 1   
@<TRIPOS>SUBSTRUCTURE
     1 MOL         1 TEMP              0 ****  ****    0 ROOT
