@<TRIPOS>MOLECULE
MOL
  189   185     1     0     0
SMALL
resp


@<TRIPOS>ATOM
      1 C1          4.8140    3.9620   -3.7650 c3        1 MOL     -0.337539
      2 C2          5.4880    3.2500   -2.5450 c         1 MOL      0.757922
      3 O1          4.8310    3.0400   -1.4700 o         1 MOL     -0.720523
      4 H1          5.2580    4.9490   -3.8990 hc        1 MOL      0.095953
      5 H2          4.9710    3.3680   -4.6660 hc        1 MOL      0.095953
      6 H3          3.7450    4.0670   -3.5800 hc        1 MOL      0.095953
      7 N1          6.7400    2.8070   -2.5980 n         1 MOL     -0.520167
      8 C3          7.3270    1.7710   -1.8350 c3        1 MOL      0.119471
      9 C4          6.3660    0.6010   -1.5870 c         1 MOL      0.471069
     10 O2          5.9990    0.1770   -0.4440 o         1 MOL     -0.576792
     11 C5          7.9950    2.4050   -0.6010 c3        1 MOL     -0.087753
     12 C6          7.4060    3.6280   -0.0240 c         1 MOL      0.789746
     13 O3          6.4990    3.5230    0.8280 o         1 MOL     -0.762756
     14 O4          7.8860    4.7820   -0.3120 o         1 MOL     -0.762756
     15 H4          7.2470    3.1670   -3.3950 hn        1 MOL      0.278036
     16 H5          8.0810    1.2480   -2.4380 h1        1 MOL      0.061079
     17 H6          8.9610    2.7910   -0.9360 hc        1 MOL      0.008888
     18 H7          8.0780    1.7190    0.2370 hc        1 MOL      0.008888
     19 N2          5.9300   -0.0010   -2.6940 n         1 MOL     -0.419363
     20 C7          5.1850   -1.2980   -2.7850 c3        1 MOL      0.210603
     21 C8          5.7710   -2.5590   -2.1220 c         1 MOL      0.285757
     22 O5          6.0610   -3.5090   -2.8760 o         1 MOL     -0.545770
     23 C9          3.7240   -1.0250   -2.4550 c3        1 MOL      0.177738
     24 C10         2.7400   -2.2900   -2.6110 c3        1 MOL     -0.024370
     25 C11         3.1450    0.2450   -3.2240 c3        1 MOL     -0.168936
     26 C12         2.5500   -2.9500   -4.0120 c3        1 MOL     -0.421024
     27 H8          6.4270    0.3280   -3.5050 hn        1 MOL      0.236203
     28 H9          5.2550   -1.6520   -3.8160 h1        1 MOL      0.005741
     29 H10         3.6240   -0.7620   -1.4040 hc        1 MOL     -0.134253
     30 H11         1.7510   -1.9590   -2.3000 hc        1 MOL      0.097644
     31 H12         3.0400   -3.0460   -1.8900 hc        1 MOL      0.097644
     32 H13         3.6910    1.1390   -2.9290 hc        1 MOL      0.012032
     33 H14         3.2430    0.1390   -4.2990 hc        1 MOL      0.012032
     34 H15         2.0950    0.3570   -2.9450 hc        1 MOL      0.012032
     35 H16         3.5340   -3.3130   -4.3150 hc        1 MOL      0.090633
     36 H17         1.7490   -3.6820   -3.9320 hc        1 MOL      0.090633
     37 H18         2.2540   -2.1550   -4.6910 hc        1 MOL      0.090633
     38 N3          5.8300   -2.6600   -0.8060 n         1 MOL      0.021974
     39 C13         6.3900   -3.7230   -0.0620 c3        1 MOL      0.008639
     40 C14         5.4330   -4.9230    0.2550 c         1 MOL      0.469265
     41 O6          5.7170   -6.0510   -0.0890 o         1 MOL     -0.567976
     42 C15         6.9620   -3.0520    1.1790 c3        1 MOL     -0.085321
     43 C16         7.9870   -1.8920    1.0000 c         1 MOL      0.754046
     44 O7          8.0810   -1.1020    1.9820 o         1 MOL     -0.734496
     45 O8          8.7490   -1.9670    0.0580 o         1 MOL     -0.734496
     46 H19         5.6670   -1.8090   -0.2900 hn        1 MOL      0.174756
     47 H20         7.2460   -4.1310   -0.5890 h1        1 MOL      0.035656
     48 H21         7.4930   -3.7750    1.8110 hc        1 MOL      0.011557
     49 H22         6.1070   -2.6820    1.7540 hc        1 MOL      0.011557
     50 N4          4.1780   -4.7800    0.7470 n         1 MOL     -0.372111
     51 C17         3.4440   -3.6620    1.2570 c3        1 MOL      0.026788
     52 C18         2.2600   -4.0760    2.1490 c         1 MOL      0.639748
     53 O9          1.8210   -5.2150    2.1270 o         1 MOL     -0.608583
     54 H23         3.6590   -5.6460    0.7570 hn        1 MOL      0.258756
     55 H24         3.0280   -3.0970    0.4170 h1        1 MOL     -0.003017
     56 H25         4.0470   -2.9900    1.8750 h1        1 MOL     -0.003017
     57 N5          1.6810   -3.2490    3.0080 n         1 MOL     -0.295649
     58 C19         2.0730   -1.8660    3.3850 c3        1 MOL      0.058056
     59 C20         2.3580   -0.8050    2.2660 c         1 MOL      0.553910
     60 O10         3.4910   -0.4440    2.0840 o         1 MOL     -0.520575
     61 C21         3.1730   -1.8910    4.4920 c3        1 MOL     -0.497016
     62 C22         2.7760   -2.8750    5.6180 c         1 MOL      0.764347
     63 O11         3.3940   -3.9490    5.5890 o         1 MOL     -0.737210
     64 O12         1.8440   -2.6250    6.4290 o         1 MOL     -0.737210
     65 H26         0.9800   -3.6820    3.5900 hn        1 MOL      0.266673
     66 H27         1.1570   -1.5350    3.8760 h1        1 MOL      0.044644
     67 H28         3.2640   -0.9190    4.9870 hc        1 MOL      0.125460
     68 H29         4.1260   -2.2750    4.1290 hc        1 MOL      0.125460
     69 N6          1.4560   -0.5850    1.3370 n         1 MOL     -0.508920
     70 C23         0.0690   -1.0940    1.3380 c3        1 MOL      0.188952
     71 C24        -0.2310   -2.3780    0.5910 c         1 MOL      0.287203
     72 O13         0.5210   -2.7890   -0.2550 o         1 MOL     -0.448405
     73 H30         1.7130    0.0220    0.5610 hn        1 MOL      0.254518
     74 H31        -0.5570   -0.2730    1.0040 h1        1 MOL      0.012352
     75 H32        -0.2370   -1.3190    2.3610 h1        1 MOL      0.012352
     76 N7         -1.3990   -2.9480    0.8110 n         1 MOL     -0.356562
     77 C25        -1.7960   -4.1940    0.1380 c3        1 MOL     -0.111968
     78 C26        -2.3730   -4.0250   -1.2950 c         1 MOL      0.425612
     79 O14        -2.5740   -5.0260   -2.0210 o         1 MOL     -0.526082
     80 C27        -2.7860   -4.9510    1.0110 c3        1 MOL      0.144023
     81 C28        -3.9740   -4.2850    1.6650 c3        1 MOL     -0.076490
     82 C29        -4.9580   -3.8240    0.6800 c         1 MOL      0.658909
     83 N8         -5.9330   -4.6070    0.3410 n         1 MOL     -0.741319
     84 O15        -4.8580   -2.7060    0.2350 o         1 MOL     -0.597421
     85 H33        -2.0330   -2.4160    1.3910 hn        1 MOL      0.273886
     86 H34        -0.8740   -4.7660    0.0860 h1        1 MOL      0.164250
     87 H35        -2.1090   -5.2830    1.7990 hc        1 MOL     -0.021507
     88 H36        -3.1870   -5.7650    0.4000 hc        1 MOL     -0.021507
     89 H37        -3.6300   -3.4690    2.3020 hc        1 MOL      0.022370
     90 H38        -4.3940   -5.1170    2.2400 hc        1 MOL      0.022370
     91 H39        -6.0730   -5.5790    0.5790 hn        1 MOL      0.373733
     92 H40        -6.5750   -4.1420   -0.2910 hn        1 MOL      0.373733
     93 N9         -2.7460   -2.7960   -1.7110 n         1 MOL     -0.089251
     94 C30        -3.1200   -2.4240   -3.0410 c3        1 MOL     -0.336470
     95 C31        -4.3280   -1.5010   -3.2080 c         1 MOL      0.618584
     96 O16        -4.6000   -0.8670   -4.2340 o         1 MOL     -0.567128
     97 C32        -1.8920   -1.9380   -3.8020 c3        1 MOL      0.317606
     98 C33        -0.8660   -3.0540   -4.2920 c3        1 MOL     -0.251190
     99 C34        -1.1530   -0.8550   -3.0880 c3        1 MOL     -0.251190
    100 H41        -2.8170   -2.1120   -0.9700 hn        1 MOL      0.161485
    101 H42        -3.3730   -3.3210   -3.6130 h1        1 MOL      0.132113
    102 H43        -2.2640   -1.4200   -4.6880 hc        1 MOL     -0.043362
    103 H44        -0.2510   -2.5280   -5.0320 hc        1 MOL      0.063781
    104 H45        -0.2940   -3.4450   -3.4480 hc        1 MOL      0.063781
    105 H46        -1.3870   -3.8480   -4.8280 hc        1 MOL      0.063781
    106 H47        -0.6210   -1.3580   -2.2730 hc        1 MOL      0.063781
    107 H48        -0.4180   -0.3920   -3.7400 hc        1 MOL      0.063781
    108 H49        -1.7680   -0.0170   -2.7580 hc        1 MOL      0.063781
    109 N10        -5.2350   -1.4610   -2.1960 n         1 MOL     -0.590760
    110 C35        -6.4840   -0.6700   -2.2280 c3        1 MOL      0.151239
    111 C36        -6.4430    0.7120   -1.5020 c         1 MOL      0.640607
    112 O17        -7.2940    1.4170   -1.8930 o         1 MOL     -0.576265
    113 C37        -7.5400   -1.5230   -1.5660 c3        1 MOL     -0.386475
    114 C38        -7.8830   -2.8660   -2.1240 c         1 MOL      0.731133
    115 N11        -7.8550   -3.1620   -3.3900 n         1 MOL     -0.801793
    116 O18        -8.0840   -3.8540   -1.4370 o         1 MOL     -0.608877
    117 H50        -4.9420   -1.9000   -1.3270 hn        1 MOL      0.347235
    118 H51        -6.8430   -0.4900   -3.2370 h1        1 MOL      0.055770
    119 H52        -8.4550   -0.9310   -1.6520 hc        1 MOL      0.123796
    120 H53        -7.3060   -1.6230   -0.4990 hc        1 MOL      0.123796
    121 H54        -7.5770   -2.4380   -4.0460 hn        1 MOL      0.378159
    122 H55        -7.9320   -4.1240   -3.6830 hn        1 MOL      0.378159
    123 N12        -5.5950    0.9870   -0.5390 n         1 MOL     -0.512880
    124 C39        -5.7470    2.1960    0.3180 c3        1 MOL      0.199727
    125 C40        -4.4000    2.8440    0.5910 c         1 MOL      0.484556
    126 O19        -3.3270    2.2250    0.4850 o         1 MOL     -0.490704
    127 C41        -6.4800    1.9040    1.7010 c3        1 MOL      0.039568
    128 C42        -7.5560    0.9130    1.7760 ca        1 MOL     -0.030376
    129 C43        -8.9490    1.3060    1.7550 ca        1 MOL     -0.118990
    130 C44        -7.3370   -0.4340    1.8130 ca        1 MOL     -0.118990
    131 C45       -10.0160    0.4090    1.6180 ca        1 MOL     -0.245682
    132 C46        -8.3830   -1.4060    1.6640 ca        1 MOL     -0.245682
    133 C47        -9.7420   -0.9880    1.5900 ca        1 MOL      0.316782
    134 O20       -10.7280   -1.8970    1.5930 oh        1 MOL     -0.479760
    135 H56        -4.9400    0.2680   -0.2590 hn        1 MOL      0.258030
    136 H57        -6.4680    2.8300   -0.2060 h1        1 MOL      0.023289
    137 H58        -6.9130    2.8460    2.0310 hc        1 MOL      0.039997
    138 H59        -5.7460    1.7260    2.4940 hc        1 MOL      0.039997
    139 H60        -9.1500    2.3670    1.7380 ha        1 MOL      0.110865
    140 H61        -6.2890   -0.6990    1.8850 ha        1 MOL      0.110865
    141 H62       -11.0460    0.7250    1.6410 ha        1 MOL      0.112997
    142 H63        -8.1650   -2.4510    1.5230 ha        1 MOL      0.112997
    143 H64       -11.5420   -1.3840    1.5350 ho        1 MOL      0.365786
    144 N13        -4.4440    4.1280    0.9310 n         1 MOL     -0.642443
    145 C48        -3.3280    5.0510    1.3180 c3        1 MOL      0.250537
    146 C49        -2.2080    5.2240    0.2730 c         1 MOL      0.157894
    147 O21        -1.3820    6.1320    0.5080 o         1 MOL     -0.480362
    148 C50        -2.7790    4.8100    2.7590 c3        1 MOL      0.019533
    149 C51        -3.9120    4.6470    3.9040 c3        1 MOL     -0.384415
    150 C52        -3.3010    4.7090    5.2990 c         1 MOL      0.736777
    151 O22        -2.3710    5.5240    5.5820 o         1 MOL     -0.723791
    152 O23        -3.7350    3.9300    6.1940 o         1 MOL     -0.723791
    153 H65        -5.3700    4.5300    0.8820 hn        1 MOL      0.322295
    154 H66        -3.7780    6.0470    1.3140 h1        1 MOL      0.034753
    155 H67        -2.0090    5.5480    2.9720 hc        1 MOL      0.064878
    156 H68        -2.2740    3.8510    2.6890 hc        1 MOL      0.064878
    157 H69        -4.3910    3.6780    3.7410 hc        1 MOL      0.061526
    158 H70        -4.6330    5.4650    3.7760 hc        1 MOL      0.061526
    159 N14        -1.9670    4.4170   -0.7500 n         1 MOL     -0.078808
    160 C53        -0.8330    4.4150   -1.6740 c3        1 MOL     -0.022576
    161 C54        -1.0920    5.3930   -2.8720 c         1 MOL      0.420687
    162 O24        -0.1600    5.7950   -3.5340 o         1 MOL     -0.506385
    163 C55        -0.5680    2.9500   -2.1340 c3        1 MOL     -0.118313
    164 C56        -0.0580    2.0250   -1.0810 c3        1 MOL      0.403191
    165 C57         1.2760    2.3490   -0.5520 c         1 MOL      0.557440
    166 O25         2.1440    1.3880   -0.5560 o         1 MOL     -0.619004
    167 O26         1.5470    3.4020    0.0380 o         1 MOL     -0.619004
    168 H71        -2.5020    3.5700   -0.6430 hn        1 MOL      0.156374
    169 H72         0.1040    4.7320   -1.2380 h1        1 MOL      0.111526
    170 H73         0.0960    2.9370   -3.0010 hc        1 MOL      0.011720
    171 H74        -1.5370    2.5320   -2.4200 hc        1 MOL      0.011720
    172 H75        -0.0170    1.0280   -1.5200 hc        1 MOL     -0.111161
    173 H76        -0.7360    2.0830   -0.2310 hc        1 MOL     -0.111161
    174 N15        -2.3880    5.5940   -3.1770 n         1 MOL     -0.170854
    175 C58        -2.7910    6.3790   -4.3480 c3        1 MOL     -0.351321
    176 H77        -2.4220    7.4000   -4.2450 h1        1 MOL      0.125769
    177 H78        -2.3700    5.9310   -5.2490 h1        1 MOL      0.125769
    178 H79        -3.8770    6.3910   -4.4210 h1        1 MOL      0.125769
    179 H80        -3.0700    5.1480   -2.5870 hn        1 MOL      0.175727
    180 Ca1         4.3540    2.1220    0.9180 Ca        1 MOL      1.750807
    181 O27         6.0360    1.0570    2.7810 oh        1 MOL     -0.864916
    182 H81         6.0700    0.7040    3.6620 ho        1 MOL      0.419344
    183 H82         6.8390    0.7470    2.3590 ho        1 MOL      0.419344
    184 O28         4.3030    4.6320    1.8090 oh        1 MOL     -0.864916
    185 H83         4.1650    5.3170    2.4600 ho        1 MOL      0.419344
    186 H84         5.1180    4.8550    1.3770 ho        1 MOL      0.419344
    187 O29         3.0170    2.3510    3.3850 oh        1 MOL     -0.864916
    188 H85         2.1080    2.6510    3.3160 ho        1 MOL      0.419344
    189 H86         3.2310    2.4710    4.3080 ho        1 MOL      0.419344
@<TRIPOS>BOND
     1    1    2 1   
     2    1    4 1   
     3    1    5 1   
     4    1    6 1   
     5    2    3 2   
     6    2    7 1   
     7    7    8 1   
     8    7   15 1   
     9    8    9 1   
    10    8   11 1   
    11    8   16 1   
    12    9   10 2   
    13    9   19 1   
    14   11   12 1   
    15   11   17 1   
    16   11   18 1   
    17   12   13 1   
    18   12   14 1   
    19   19   20 1   
    20   19   27 1   
    21   20   21 1   
    22   20   23 1   
    23   20   28 1   
    24   21   22 2   
    25   21   38 1   
    26   23   24 1   
    27   23   25 1   
    28   23   29 1   
    29   24   26 1   
    30   24   30 1   
    31   24   31 1   
    32   25   32 1   
    33   25   33 1   
    34   25   34 1   
    35   26   35 1   
    36   26   36 1   
    37   26   37 1   
    38   38   39 1   
    39   38   46 1   
    40   39   40 1   
    41   39   42 1   
    42   39   47 1   
    43   40   41 2   
    44   40   50 1   
    45   42   43 1   
    46   42   48 1   
    47   42   49 1   
    48   43   44 1   
    49   43   45 1   
    50   50   51 1   
    51   50   54 1   
    52   51   52 1   
    53   51   55 1   
    54   51   56 1   
    55   52   53 2   
    56   52   57 1   
    57   57   58 1   
    58   57   65 1   
    59   58   59 1   
    60   58   61 1   
    61   58   66 1   
    62   59   60 2   
    63   59   69 1   
    64   61   62 1   
    65   61   67 1   
    66   61   68 1   
    67   62   63 1   
    68   62   64 1   
    69   69   70 1   
    70   69   73 1   
    71   70   71 1   
    72   70   74 1   
    73   70   75 1   
    74   71   72 2   
    75   71   76 1   
    76   76   77 1   
    77   76   85 1   
    78   77   78 1   
    79   77   80 1   
    80   77   86 1   
    81   78   79 2   
    82   78   93 1   
    83   80   81 1   
    84   80   87 1   
    85   80   88 1   
    86   81   82 1   
    87   81   89 1   
    88   81   90 1   
    89   82   83 1   
    90   82   84 2   
    91   83   91 1   
    92   83   92 1   
    93   93   94 1   
    94   93  100 1   
    95   94   95 1   
    96   94   97 1   
    97   94  101 1   
    98   95   96 2   
    99   95  109 1   
   100   97   98 1   
   101   97   99 1   
   102   97  102 1   
   103   98  103 1   
   104   98  104 1   
   105   98  105 1   
   106   99  106 1   
   107   99  107 1   
   108   99  108 1   
   109  109  110 1   
   110  109  117 1   
   111  110  111 1   
   112  110  113 1   
   113  110  118 1   
   114  111  112 2   
   115  111  123 1   
   116  113  114 1   
   117  113  119 1   
   118  113  120 1   
   119  114  115 1   
   120  114  116 2   
   121  115  121 1   
   122  115  122 1   
   123  123  124 1   
   124  123  135 1   
   125  124  125 1   
   126  124  127 1   
   127  124  136 1   
   128  125  126 2   
   129  125  144 1   
   130  127  128 1   
   131  127  137 1   
   132  127  138 1   
   133  128  129 ar  
   134  128  130 ar  
   135  129  131 ar  
   136  129  139 1   
   137  130  132 ar  
   138  130  140 1   
   139  131  133 ar  
   140  131  141 1   
   141  132  133 ar  
   142  132  142 1   
   143  133  134 1   
   144  134  143 1   
   145  144  145 1   
   146  144  153 1   
   147  145  146 1   
   148  145  148 1   
   149  145  154 1   
   150  146  147 2   
   151  146  159 1   
   152  148  149 1   
   153  148  155 1   
   154  148  156 1   
   155  149  150 1   
   156  149  157 1   
   157  149  158 1   
   158  150  151 1   
   159  150  152 1   
   160  159  160 1   
   161  159  168 1   
   162  160  161 1   
   163  160  163 1   
   164  160  169 1   
   165  161  162 2   
   166  161  174 1   
   167  163  164 1   
   168  163  170 1   
   169  163  171 1   
   170  164  165 1   
   171  164  172 1   
   172  164  173 1   
   173  165  166 1   
   174  165  167 1   
   175  174  175 1   
   176  174  179 1   
   177  175  176 1   
   178  175  177 1   
   179  175  178 1   
   180  181  182 1   
   181  181  183 1   
   182  184  185 1   
   183  184  186 1   
   184  187  188 1   
   185  187  189 1   
@<TRIPOS>SUBSTRUCTURE
     1 MOL         1 TEMP              0 ****  ****    0 ROOT
