@<TRIPOS>MOLECULE
MOL
  181   177     1     0     0
SMALL
resp


@<TRIPOS>ATOM
      1 C1          3.1690   -1.9870    3.8900 c3        1 MOL     -0.465482
      2 C2          4.4990   -1.4290    3.4120 c         1 MOL      0.773792
      3 O1          4.5050   -0.2870    3.0060 o         1 MOL     -0.569998
      4 H1          2.4340   -1.1830    3.9390 hc        1 MOL      0.109425
      5 H2          2.8240   -2.7510    3.1930 hc        1 MOL      0.109425
      6 H3          3.2930   -2.4260    4.8800 hc        1 MOL      0.109425
      7 N1          5.6550   -2.1360    3.4150 n         1 MOL     -0.564105
      8 C3          6.9110   -1.6070    2.8810 c3        1 MOL     -0.030792
      9 C4          7.0410   -1.8300    1.4140 c         1 MOL      0.845868
     10 O2          6.8560   -2.9610    0.9300 o         1 MOL     -0.629969
     11 C5          8.0920   -2.2420    3.6390 c3        1 MOL     -0.164628
     12 C6          9.4030   -1.4940    3.3310 c         1 MOL      0.708696
     13 O3          9.5730   -0.2610    3.6900 o         1 MOL     -0.729891
     14 O4         10.3280   -2.2340    2.9050 o         1 MOL     -0.729891
     15 H4          5.6820   -3.1090    3.6840 hn        1 MOL      0.300142
     16 H5          6.9260   -0.5490    3.1440 h1        1 MOL      0.078658
     17 H6          8.2310   -3.2980    3.4180 hc        1 MOL      0.022758
     18 H7          7.9560   -2.1420    4.7060 hc        1 MOL      0.022758
     19 N2          7.2850   -0.7970    0.6470 n         1 MOL     -0.883220
     20 C7          7.1680   -0.7010   -0.7830 c3        1 MOL      0.845865
     21 C8          5.8590   -0.0730   -1.2730 c         1 MOL      0.417643
     22 O5          5.1460    0.6440   -0.5630 o         1 MOL     -0.509663
     23 C9          8.3940    0.0890   -1.3740 c3        1 MOL     -0.273782
     24 H8          7.5470    0.0140    1.1840 hn        1 MOL      0.323705
     25 H9          7.3790   -1.6730   -1.2490 h1        1 MOL     -0.125492
     26 H10         8.4120    0.0030   -2.4570 hc        1 MOL      0.053602
     27 H11         8.3360    1.1410   -1.0750 hc        1 MOL      0.053602
     28 H12         9.3200   -0.3920   -1.0460 hc        1 MOL      0.053602
     29 N3          5.5210   -0.3490   -2.5170 n         1 MOL     -0.753253
     30 C10         4.5380    0.3950   -3.2600 c3        1 MOL      0.343838
     31 C11         4.9790    1.7670   -3.8380 c         1 MOL      0.557754
     32 O6          6.1970    2.1160   -3.9870 o         1 MOL     -0.522154
     33 C12         3.9980   -0.5360   -4.3480 c3        1 MOL     -0.437034
     34 C13         3.3390   -1.8270   -3.8970 c         1 MOL      0.843649
     35 O7          2.9890   -1.9870   -2.7250 o         1 MOL     -0.724672
     36 O8          3.1460   -2.7430   -4.7300 o         1 MOL     -0.724672
     37 H13         6.1160   -1.0570   -2.9190 hn        1 MOL      0.356356
     38 H14         3.6820    0.5900   -2.6040 h1        1 MOL      0.038977
     39 H15         4.7100   -0.7130   -5.1470 hc        1 MOL      0.087473
     40 H16         3.1530    0.0590   -4.6990 hc        1 MOL      0.087473
     41 N4          3.8970    2.5970   -3.9950 n         1 MOL     -0.528779
     42 C14         3.9990    3.9550   -4.6030 c3        1 MOL      0.049485
     43 C15         2.9530    4.9120   -4.1560 c         1 MOL      0.701117
     44 O9          3.1130    6.1230   -4.3260 o         1 MOL     -0.617540
     45 H17         2.9840    2.2670   -3.7260 hn        1 MOL      0.254108
     46 H18         3.8630    3.8730   -5.6820 h1        1 MOL      0.052387
     47 H19         4.9510    4.4550   -4.4130 h1        1 MOL      0.052387
     48 N5          1.8770    4.4350   -3.5390 n         1 MOL     -0.489691
     49 C16         0.7820    5.2390   -3.0180 c3        1 MOL     -0.152469
     50 C17         0.5180    5.1100   -1.5350 c         1 MOL      0.552265
     51 O10         0.1790    4.0960   -0.9270 o         1 MOL     -0.460316
     52 C18        -0.5190    5.0280   -3.8450 c3        1 MOL     -0.372099
     53 C19        -0.2390    5.1310   -5.3580 c         1 MOL      0.647996
     54 N6          0.3380    6.1490   -5.8220 n         1 MOL     -0.717813
     55 O11        -0.5790    4.2300   -6.1510 o         1 MOL     -0.580720
     56 H20         1.6960    3.4480   -3.4900 hn        1 MOL      0.371124
     57 H21         1.1580    6.2530   -3.0850 h1        1 MOL      0.100834
     58 H22        -1.3000    5.7660   -3.6310 hc        1 MOL      0.144583
     59 H23        -0.8740    4.0390   -3.5780 hc        1 MOL      0.144583
     60 H24         0.6770    6.8310   -5.1640 hn        1 MOL      0.360111
     61 H25         0.3230    6.2370   -6.8280 hn        1 MOL      0.360111
     62 N7          0.5750    6.2480   -0.9270 n         1 MOL     -0.288369
     63 C20         0.3950    6.4460    0.5350 c3        1 MOL     -0.310708
     64 C21        -0.9940    6.0880    1.0510 c         1 MOL      0.573196
     65 O12        -1.8700    5.6350    0.3090 o         1 MOL     -0.468611
     66 H26         0.7690    7.1130   -1.4070 hn        1 MOL      0.269907
     67 H27         0.3660    7.5280    0.6530 h1        1 MOL      0.140455
     68 H28         1.1870    5.9710    1.1170 h1        1 MOL      0.140455
     69 N8         -1.1660    6.2020    2.3880 n         1 MOL     -0.350090
     70 C22        -2.4990    6.0570    3.0850 c3        1 MOL     -0.281825
     71 C23        -3.0090    4.7400    3.5980 c         1 MOL      0.532447
     72 O13        -4.2190    4.5770    3.8340 o         1 MOL     -0.570382
     73 C24        -2.5160    7.1370    4.2060 c3        1 MOL      0.453716
     74 C25        -1.5570    6.9320    5.4220 c3        1 MOL     -0.403301
     75 O14        -2.2710    8.4230    3.7760 oh        1 MOL     -0.604409
     76 H29        -0.5040    6.8510    2.7970 hn        1 MOL      0.210117
     77 H30        -3.2690    6.3760    2.3760 h1        1 MOL      0.138266
     78 H31        -3.5370    7.1180    4.5930 h1        1 MOL      0.042045
     79 H32        -1.3540    8.3740    3.4910 ho        1 MOL      0.362779
     80 H33        -0.5160    6.9770    5.0940 hc        1 MOL      0.094505
     81 H34        -1.7580    7.6190    6.2550 hc        1 MOL      0.094505
     82 H35        -1.6840    5.9440    5.8620 hc        1 MOL      0.094505
     83 N9         -2.1170    3.7570    3.6520 n         1 MOL     -0.080750
     84 C26        -2.5990    2.3480    3.7560 c3        1 MOL     -0.232718
     85 C27        -1.7170    1.6120    2.6810 c         1 MOL      0.501645
     86 O15        -0.5840    2.0510    2.4490 o         1 MOL     -0.477073
     87 C28        -2.5130    1.6940    5.1420 c3        1 MOL      0.203847
     88 C29        -1.0950    1.7390    5.7410 c3        1 MOL     -0.051592
     89 C30        -3.6030    2.2450    6.0620 c3        1 MOL     -0.425866
     90 C31        -1.0090    1.1380    7.1630 c3        1 MOL     -0.283398
     91 H36        -1.1190    3.8990    3.5590 hn        1 MOL      0.160047
     92 H37        -3.6300    2.1500    3.4670 h1        1 MOL      0.111349
     93 H38        -2.8160    0.6660    4.9690 hc        1 MOL      0.021386
     94 H39        -0.7830    2.7810    5.7670 hc        1 MOL      0.063633
     95 H40        -0.5020    1.1250    5.0580 hc        1 MOL      0.063633
     96 H41        -3.8650    1.5030    6.8120 hc        1 MOL      0.106413
     97 H42        -3.3680    3.2400    6.4270 hc        1 MOL      0.106413
     98 H43        -4.5280    2.3380    5.4820 hc        1 MOL      0.106413
     99 H44        -1.5540    1.8430    7.7850 hc        1 MOL      0.070787
    100 H45        -1.4660    0.1530    7.0300 hc        1 MOL      0.070787
    101 H46         0.0200    1.1670    7.5350 hc        1 MOL      0.070787
    102 N10        -2.2060    0.4520    2.2680 n         1 MOL     -0.558345
    103 C32        -1.7140   -0.2860    1.1230 c3        1 MOL      0.481434
    104 C33        -2.8110   -0.7890    0.0740 c         1 MOL      0.354870
    105 O16        -2.7490   -1.8970   -0.4370 o         1 MOL     -0.429798
    106 C34        -0.8790   -1.4710    1.6190 c3        1 MOL     -0.362427
    107 C35         0.0550   -2.2470    0.6870 c         1 MOL      0.760271
    108 O17         0.5160   -3.3700    1.0380 o         1 MOL     -0.695254
    109 O18         0.5080   -1.7480   -0.3760 o         1 MOL     -0.695254
    110 H47        -3.1550    0.2140    2.5090 hn        1 MOL      0.281741
    111 H48        -0.9430    0.2070    0.5190 h1        1 MOL     -0.013088
    112 H49        -1.5570   -2.1330    2.1570 hc        1 MOL      0.083648
    113 H50        -0.1610   -1.1140    2.3580 hc        1 MOL      0.083648
    114 N11        -3.7640   -0.0060   -0.2450 n         1 MOL     -0.493674
    115 C36        -4.8990   -0.2970   -1.1240 c3        1 MOL      0.426010
    116 C37        -5.6480   -1.4900   -0.6050 c         1 MOL      0.301544
    117 O19        -5.8640   -1.6060    0.6020 o         1 MOL     -0.585025
    118 C38        -5.8250    0.9730   -1.2500 c3        1 MOL     -0.356003
    119 C39        -7.1370    0.6570   -2.0730 ca        1 MOL      0.199808
    120 C40        -7.1440    0.6710   -3.4650 ca        1 MOL     -0.241701
    121 C41        -8.2590    0.2540   -1.3840 ca        1 MOL     -0.241701
    122 C42        -8.2660    0.2390   -4.1670 ca        1 MOL     -0.068847
    123 C43        -9.3850   -0.1900   -2.0680 ca        1 MOL     -0.068847
    124 C44        -9.3800   -0.2180   -3.5180 ca        1 MOL     -0.149696
    125 H51        -3.7040    0.9490    0.0900 hn        1 MOL      0.254880
    126 H52        -4.5550   -0.4420   -2.1400 h1        1 MOL     -0.009846
    127 H53        -5.1940    1.6910   -1.7610 hc        1 MOL      0.116486
    128 H54        -6.0570    1.2890   -0.2280 hc        1 MOL      0.116486
    129 H55        -6.2250    0.8450   -4.0090 ha        1 MOL      0.146348
    130 H56        -8.3670    0.2530   -0.3070 ha        1 MOL      0.146348
    131 H57        -8.2040    0.1430   -5.2470 ha        1 MOL      0.100369
    132 H58       -10.2670   -0.6050   -1.6210 ha        1 MOL      0.100369
    133 H59       -10.1740   -0.6280   -4.1220 ha        1 MOL      0.110659
    134 N12        -6.0900   -2.4220   -1.4170 n         1 MOL      0.086892
    135 C45        -6.7220   -3.6380   -0.8350 c3        1 MOL      0.028431
    136 C46        -5.7770   -4.4990   -0.0030 c         1 MOL      0.347335
    137 O20        -6.2660   -5.3210    0.7120 o         1 MOL     -0.521024
    138 C47        -7.2440   -4.3410   -2.0570 c3        1 MOL     -0.155263
    139 C48        -6.3010   -3.9520   -3.2330 c3        1 MOL     -0.024241
    140 C49        -6.0170   -2.4750   -2.8590 c3        1 MOL     -0.195483
    141 H60        -7.5940   -3.3690   -0.2310 h1        1 MOL      0.067621
    142 H61        -7.3140   -5.4010   -1.8050 hc        1 MOL      0.058557
    143 H62        -8.2140   -3.9630   -2.3810 hc        1 MOL      0.058557
    144 H63        -5.4310   -4.6070   -3.1890 hc        1 MOL      0.037863
    145 H64        -6.8210   -4.0090   -4.1890 hc        1 MOL      0.037863
    146 H65        -5.0130   -2.2250   -3.2210 h1        1 MOL      0.077756
    147 H66        -6.7960   -1.9150   -3.3660 h1        1 MOL      0.077756
    148 N13        -4.4650   -4.3890   -0.1290 n         1 MOL     -0.042347
    149 C50        -3.5290   -5.2830    0.6470 c3        1 MOL     -0.288297
    150 C51        -3.6720   -5.1640    2.1340 c         1 MOL      0.615871
    151 O21        -3.7540   -6.2060    2.8470 o         1 MOL     -0.575689
    152 C52        -2.0750   -5.0370    0.2700 c3        1 MOL      0.106939
    153 C53        -1.8040   -5.1000   -1.2670 c3        1 MOL     -0.253286
    154 C54        -0.2960   -5.0060   -1.4940 c         1 MOL      0.710948
    155 O22         0.2390   -4.1220   -2.2680 o         1 MOL     -0.719852
    156 O23         0.5350   -5.6990   -0.8460 o         1 MOL     -0.719852
    157 H67        -4.0950   -3.6840   -0.7390 hn        1 MOL      0.162506
    158 H68        -3.8110   -6.3020    0.3760 h1        1 MOL      0.123912
    159 H69        -1.5000   -5.6430    0.9670 hc        1 MOL      0.015605
    160 H70        -1.8500   -4.0690    0.7140 hc        1 MOL      0.015605
    161 H71        -2.4020   -4.2920   -1.6660 hc        1 MOL      0.038923
    162 H72        -2.1910   -6.0180   -1.6900 hc        1 MOL      0.038923
    163 N14        -3.7180   -3.9630    2.6550 n         1 MOL     -0.296152
    164 C55        -3.6740   -3.8050    4.1510 c3        1 MOL     -0.409765
    165 H73        -4.5360   -4.3050    4.5940 h1        1 MOL      0.147295
    166 H74        -2.7570   -4.2520    4.5370 h1        1 MOL      0.147295
    167 H75        -3.6980   -2.7450    4.4060 h1        1 MOL      0.147295
    168 H76        -3.5970   -3.1030    2.1390 hn        1 MOL      0.299102
    169 Ca1         2.3510   -3.6110   -0.7750 Ca        1 MOL      1.724212
    170 O24         2.7350   -4.8850   -3.0390 oh        1 MOL     -0.858557
    171 H77         3.5400   -5.3790   -3.2180 ho        1 MOL      0.401826
    172 H78         2.7850   -4.1340   -3.6310 ho        1 MOL      0.401826
    173 O25         3.3270   -5.1880    1.1340 oh        1 MOL     -0.858557
    174 H79         4.2060   -5.4670    1.3860 ho        1 MOL      0.401826
    175 H80         2.7460   -5.6740    1.7160 ho        1 MOL      0.401826
    176 O26         5.0240   -3.3740   -0.9560 oh        1 MOL     -0.858557
    177 H81         5.5380   -4.0580   -1.3910 ho        1 MOL      0.401826
    178 H82         5.5930   -3.0260   -0.2710 ho        1 MOL      0.401826
    179 O27         3.1220   -1.2170    0.3670 oh        1 MOL     -0.858557
    180 H83         2.3360   -0.7650    0.0590 ho        1 MOL      0.401826
    181 H84         3.8480   -0.7040    0.0120 ho        1 MOL      0.401826
@<TRIPOS>BOND
     1    1    2 1   
     2    1    4 1   
     3    1    5 1   
     4    1    6 1   
     5    2    3 2   
     6    2    7 1   
     7    7    8 1   
     8    7   15 1   
     9    8    9 1   
    10    8   11 1   
    11    8   16 1   
    12    9   10 2   
    13    9   19 1   
    14   11   12 1   
    15   11   17 1   
    16   11   18 1   
    17   12   13 1   
    18   12   14 1   
    19   19   20 1   
    20   19   24 1   
    21   20   21 1   
    22   20   23 1   
    23   20   25 1   
    24   21   22 2   
    25   21   29 1   
    26   23   26 1   
    27   23   27 1   
    28   23   28 1   
    29   29   30 1   
    30   29   37 1   
    31   30   31 1   
    32   30   33 1   
    33   30   38 1   
    34   31   32 2   
    35   31   41 1   
    36   33   34 1   
    37   33   39 1   
    38   33   40 1   
    39   34   35 1   
    40   34   36 1   
    41   41   42 1   
    42   41   45 1   
    43   42   43 1   
    44   42   46 1   
    45   42   47 1   
    46   43   44 2   
    47   43   48 1   
    48   48   49 1   
    49   48   56 1   
    50   49   50 1   
    51   49   52 1   
    52   49   57 1   
    53   50   51 2   
    54   50   62 1   
    55   52   53 1   
    56   52   58 1   
    57   52   59 1   
    58   53   54 1   
    59   53   55 2   
    60   54   60 1   
    61   54   61 1   
    62   62   63 1   
    63   62   66 1   
    64   63   64 1   
    65   63   67 1   
    66   63   68 1   
    67   64   65 2   
    68   64   69 1   
    69   69   70 1   
    70   69   76 1   
    71   70   71 1   
    72   70   73 1   
    73   70   77 1   
    74   71   72 2   
    75   71   83 1   
    76   73   74 1   
    77   73   75 1   
    78   73   78 1   
    79   74   80 1   
    80   74   81 1   
    81   74   82 1   
    82   75   79 1   
    83   83   84 1   
    84   83   91 1   
    85   84   85 1   
    86   84   87 1   
    87   84   92 1   
    88   85   86 2   
    89   85  102 1   
    90   87   88 1   
    91   87   89 1   
    92   87   93 1   
    93   88   90 1   
    94   88   94 1   
    95   88   95 1   
    96   89   96 1   
    97   89   97 1   
    98   89   98 1   
    99   90   99 1   
   100   90  100 1   
   101   90  101 1   
   102  102  103 1   
   103  102  110 1   
   104  103  104 1   
   105  103  106 1   
   106  103  111 1   
   107  104  105 2   
   108  104  114 1   
   109  106  107 1   
   110  106  112 1   
   111  106  113 1   
   112  107  108 1   
   113  107  109 1   
   114  114  115 1   
   115  114  125 1   
   116  115  116 1   
   117  115  118 1   
   118  115  126 1   
   119  116  117 2   
   120  116  134 1   
   121  118  119 1   
   122  118  127 1   
   123  118  128 1   
   124  119  120 ar  
   125  119  121 ar  
   126  120  122 ar  
   127  120  129 1   
   128  121  123 ar  
   129  121  130 1   
   130  122  124 ar  
   131  122  131 1   
   132  123  124 ar  
   133  123  132 1   
   134  124  133 1   
   135  134  135 1   
   136  134  140 1   
   137  135  136 1   
   138  135  138 1   
   139  135  141 1   
   140  136  137 2   
   141  136  148 1   
   142  138  139 1   
   143  138  142 1   
   144  138  143 1   
   145  139  140 1   
   146  139  144 1   
   147  139  145 1   
   148  140  146 1   
   149  140  147 1   
   150  148  149 1   
   151  148  157 1   
   152  149  150 1   
   153  149  152 1   
   154  149  158 1   
   155  150  151 2   
   156  150  163 1   
   157  152  153 1   
   158  152  159 1   
   159  152  160 1   
   160  153  154 1   
   161  153  161 1   
   162  153  162 1   
   163  154  155 1   
   164  154  156 1   
   165  163  164 1   
   166  163  168 1   
   167  164  165 1   
   168  164  166 1   
   169  164  167 1   
   170  170  171 1   
   171  170  172 1   
   172  173  174 1   
   173  173  175 1   
   174  176  177 1   
   175  176  178 1   
   176  179  180 1   
   177  179  181 1   
@<TRIPOS>SUBSTRUCTURE
     1 MOL         1 TEMP              0 ****  ****    0 ROOT
