@<TRIPOS>MOLECULE
MOL
  181   177     1     0     0
SMALL
resp


@<TRIPOS>ATOM
      1 C1          8.6190    7.5000   -1.9240 c3        1 MOL     -0.425088
      2 C2          7.5780    6.4990   -1.3480 c         1 MOL      0.684907
      3 O1          6.4920    6.8650   -0.9400 o         1 MOL     -0.584099
      4 H1          9.5020    6.9540   -2.2550 hc        1 MOL      0.112127
      5 H2          8.1820    8.0320   -2.7690 hc        1 MOL      0.112127
      6 H3          8.9030    8.2150   -1.1510 hc        1 MOL      0.112127
      7 N1          7.9360    5.2400   -1.0700 n         1 MOL     -0.629334
      8 C3          9.2450    4.5770   -1.3120 c3        1 MOL      0.178076
      9 C4          9.7760    3.8320   -0.0750 c         1 MOL      0.438180
     10 O2         10.8340    3.2520   -0.1010 o         1 MOL     -0.554774
     11 C5          9.1650    3.6370   -2.5130 c3        1 MOL     -0.255596
     12 C6          8.1990    2.5090   -2.2960 c         1 MOL      0.853960
     13 O3          8.1030    1.6290   -3.1990 o         1 MOL     -0.822966
     14 O4          7.5630    2.3990   -1.2550 o         1 MOL     -0.822966
     15 H4          7.1650    4.6490   -0.7960 hn        1 MOL      0.377176
     16 H5          9.9740    5.3580   -1.5390 h1        1 MOL      0.052642
     17 H6         10.1290    3.2980   -2.8810 hc        1 MOL      0.069214
     18 H7          8.9800    4.3030   -3.3680 hc        1 MOL      0.069214
     19 N2          9.0250    3.9170    1.0270 n         1 MOL     -0.331194
     20 C7          9.4560    3.4790    2.3510 c3        1 MOL      0.132366
     21 C8          9.3290    1.9410    2.6160 c         1 MOL      0.429288
     22 O5          9.7950    1.5030    3.6510 o         1 MOL     -0.551964
     23 C9          8.6330    4.1840    3.4630 c3        1 MOL     -0.414279
     24 H8          8.2200    4.5240    1.0610 hn        1 MOL      0.248277
     25 H9         10.5010    3.7470    2.4980 h1        1 MOL      0.060011
     26 H10         8.8500    3.7530    4.4380 hc        1 MOL      0.126507
     27 H11         8.9190    5.2360    3.3880 hc        1 MOL      0.126507
     28 H12         7.6070    3.9390    3.1950 hc        1 MOL      0.126507
     29 N3          8.7110    1.1930    1.6840 n         1 MOL     -0.192354
     30 C10         8.5460   -0.2560    1.8710 c3        1 MOL     -0.054279
     31 C11         8.5830   -1.0330    0.5700 c         1 MOL      0.546699
     32 O6          8.5630   -0.4490   -0.5080 o         1 MOL     -0.530022
     33 C12         7.1370   -0.4600    2.5650 c3        1 MOL     -0.140156
     34 C13         5.9530    0.2010    1.8440 c         1 MOL      0.702065
     35 O7          4.9180    0.3930    2.5360 o         1 MOL     -0.688604
     36 O8          6.0600    0.5090    0.6200 o         1 MOL     -0.688604
     37 H13         8.3910    1.5860    0.8140 hn        1 MOL      0.230275
     38 H14         9.3400   -0.6470    2.5070 h1        1 MOL      0.049394
     39 H15         7.0720    0.0050    3.5590 hc        1 MOL      0.042176
     40 H16         6.9940   -1.5300    2.6830 hc        1 MOL      0.042176
     41 N4          8.7230   -2.3570    0.7140 n         1 MOL     -0.461673
     42 C14         8.4950   -3.3010   -0.4070 c3        1 MOL     -0.141110
     43 C15         7.0520   -3.2930   -0.9530 c         1 MOL      0.760175
     44 O9          6.3490   -2.2900   -0.9220 o         1 MOL     -0.586717
     45 H17         8.7340   -2.7380    1.6500 hn        1 MOL      0.322269
     46 H18         8.7120   -4.3230   -0.1030 h1        1 MOL      0.094749
     47 H19         9.1980   -3.0430   -1.2100 h1        1 MOL      0.094749
     48 N5          6.6670   -4.4700   -1.4410 n         1 MOL     -0.811940
     49 C16         5.2340   -4.7280   -1.8100 c3        1 MOL      0.727683
     50 C17         4.2600   -4.7780   -0.5880 c         1 MOL      0.536496
     51 O10         4.6540   -5.3000    0.4360 o         1 MOL     -0.557193
     52 C18         5.1610   -5.9820   -2.6810 c3        1 MOL     -0.389879
     53 C19         3.8160   -6.1050   -3.3930 c         1 MOL      0.666107
     54 N6          3.4950   -7.1810   -4.0120 n         1 MOL     -0.738921
     55 O11         3.0820   -5.1180   -3.4140 o         1 MOL     -0.540621
     56 H20         7.4000   -5.1360   -1.6480 hn        1 MOL      0.321100
     57 H21         5.0700   -3.8790   -2.4620 h1        1 MOL     -0.130603
     58 H22         5.3360   -6.7890   -1.9700 hc        1 MOL      0.077383
     59 H23         5.8800   -5.9080   -3.4930 hc        1 MOL      0.077383
     60 H24         4.0130   -8.0250   -3.8150 hn        1 MOL      0.358421
     61 H25         2.5140   -7.2730   -4.2550 hn        1 MOL      0.358421
     62 N7          3.0010   -4.3110   -0.7220 n         1 MOL     -0.597465
     63 C20         2.0790   -4.1400    0.4720 c3        1 MOL      0.042068
     64 C21         2.1660   -2.6850    1.0920 c         1 MOL      0.698141
     65 O12         2.9380   -1.8360    0.6040 o         1 MOL     -0.632809
     66 H26         2.6350   -3.9460   -1.5840 hn        1 MOL      0.301094
     67 H27         2.0760   -4.9910    1.1610 h1        1 MOL      0.102172
     68 H28         1.1070   -4.2750   -0.0090 h1        1 MOL      0.102172
     69 N8          1.4410   -2.3360    2.1310 n         1 MOL     -0.556764
     70 C22         0.4310   -3.2110    2.7930 c3        1 MOL     -0.552332
     71 C23        -0.9520   -2.5310    2.8180 c         1 MOL      0.743218
     72 O13        -1.8630   -3.0080    3.5060 o         1 MOL     -0.561238
     73 C24         0.9170   -3.5780    4.1980 c3        1 MOL      0.608892
     74 C25         2.0920   -4.6130    4.1860 c3        1 MOL     -0.590339
     75 O14         1.3830   -2.4470    4.8750 oh        1 MOL     -0.628651
     76 H29         1.6470   -1.4370    2.5300 hn        1 MOL      0.430628
     77 H30         0.2530   -4.1550    2.2890 h1        1 MOL      0.176035
     78 H31         0.1640   -4.0340    4.8370 h1        1 MOL      0.020187
     79 H32         2.2890   -2.3620    4.5500 ho        1 MOL      0.388754
     80 H33         3.0440   -4.2520    3.7980 hc        1 MOL      0.139136
     81 H34         2.4070   -4.8680    5.1990 hc        1 MOL      0.139136
     82 H35         1.7590   -5.5560    3.7390 hc        1 MOL      0.139136
     83 N9         -1.1020   -1.3970    2.1120 n         1 MOL     -0.317637
     84 C26        -2.3500   -0.7890    1.8100 c3        1 MOL      0.053623
     85 C27        -2.7010   -1.0880    0.3220 c         1 MOL      0.457660
     86 O15        -1.7380   -0.9310   -0.4650 o         1 MOL     -0.589749
     87 C28        -2.1560    0.7130    2.0240 c3        1 MOL     -0.030258
     88 C29        -1.5130    1.1830    3.3440 c3        1 MOL      0.160805
     89 C30        -3.5520    1.4760    1.9230 c3        1 MOL     -0.137922
     90 C31        -2.1190    0.7670    4.6660 c3        1 MOL     -0.296653
     91 H36        -0.3620   -0.8570    1.6680 hn        1 MOL      0.218769
     92 H37        -3.0980   -1.2730    2.4410 h1        1 MOL      0.075036
     93 H38        -1.4510    1.1410    1.3020 hc        1 MOL      0.027239
     94 H39        -1.3410    2.2560    3.3190 hc        1 MOL     -0.023356
     95 H40        -0.4880    0.8360    3.3530 hc        1 MOL     -0.023356
     96 H41        -3.4280    2.4590    2.3910 hc        1 MOL      0.044968
     97 H42        -3.8930    1.7120    0.9090 hc        1 MOL      0.044968
     98 H43        -4.3170    0.8930    2.4170 hc        1 MOL      0.044968
     99 H44        -1.4610    1.1040    5.4620 hc        1 MOL      0.069159
    100 H45        -3.0470    1.2770    4.9370 hc        1 MOL      0.069159
    101 H46        -2.1980   -0.3120    4.7090 hc        1 MOL      0.069159
    102 N10        -3.9330   -1.4540   -0.1060 n         1 MOL     -0.401654
    103 C32        -5.2080   -1.5700    0.6340 c3        1 MOL      0.316058
    104 C33        -6.4810   -1.0170   -0.1090 c         1 MOL      0.232679
    105 O16        -6.4270   -0.8190   -1.3410 o         1 MOL     -0.495281
    106 C34        -5.4860   -2.9740    1.2110 c3        1 MOL     -0.100939
    107 C35        -5.2170   -4.1420    0.2720 c         1 MOL      0.641166
    108 O17        -4.7740   -5.1920    0.7960 o         1 MOL     -0.711049
    109 O18        -5.3410   -4.0870   -0.9660 o         1 MOL     -0.711049
    110 H47        -3.9750   -1.6070   -1.1060 hn        1 MOL      0.301391
    111 H48        -5.2350   -1.0580    1.5880 h1        1 MOL     -0.004688
    112 H49        -6.4640   -2.9590    1.7070 hc        1 MOL     -0.017502
    113 H50        -4.7520   -3.1860    1.9940 hc        1 MOL     -0.017502
    114 N11        -7.5860   -0.8110    0.5370 n         1 MOL     -0.370678
    115 C36        -8.9010   -0.6600   -0.1070 c3        1 MOL      0.183799
    116 C37        -9.8840    0.1970    0.7630 c         1 MOL      0.304212
    117 O19       -10.2380   -0.2150    1.8630 o         1 MOL     -0.535663
    118 C38        -9.5200   -2.0880   -0.4690 c3        1 MOL     -0.196647
    119 C39       -10.8720   -1.9970   -1.1730 ca        1 MOL      0.086741
    120 C40       -12.0050   -1.8940   -0.4030 ca        1 MOL     -0.149848
    121 C41       -10.9970   -2.0520   -2.5560 ca        1 MOL     -0.149848
    122 C42       -13.2730   -1.8150   -1.0400 ca        1 MOL     -0.133001
    123 C43       -12.2390   -1.9040   -3.2040 ca        1 MOL     -0.133001
    124 C44       -13.4080   -1.8130   -2.4170 ca        1 MOL     -0.107564
    125 H51        -7.5090   -0.9180    1.5430 hn        1 MOL      0.289478
    126 H52        -8.7720   -0.2330   -1.1050 h1        1 MOL      0.064119
    127 H53        -9.5370   -2.7200    0.4180 hc        1 MOL      0.105610
    128 H54        -8.8230   -2.6030   -1.1300 hc        1 MOL      0.105610
    129 H55       -11.9210   -1.8950    0.6680 ha        1 MOL      0.126820
    130 H56       -10.0850   -2.1060   -3.1450 ha        1 MOL      0.126820
    131 H57       -14.1610   -1.5930   -0.4580 ha        1 MOL      0.101009
    132 H58       -12.3110   -1.8870   -4.2750 ha        1 MOL      0.101009
    133 H59       -14.3880   -1.6460   -2.8540 ha        1 MOL      0.090693
    134 N12       -10.5050    1.1660    0.1990 n         1 MOL      0.119314
    135 C45       -10.4990    1.6340   -1.1820 c3        1 MOL      0.327183
    136 C46        -9.1930    2.3320   -1.6600 c         1 MOL      0.110635
    137 O20        -8.7860    2.3230   -2.8540 o         1 MOL     -0.505308
    138 C47       -11.6470    2.6380   -1.2770 c3        1 MOL     -0.129688
    139 C48       -12.5500    2.1410   -0.1350 c3        1 MOL     -0.021232
    140 C49       -11.4850    1.8990    0.9160 c3        1 MOL     -0.357730
    141 H60       -10.6810    0.8660   -1.9380 h1        1 MOL     -0.012495
    142 H61       -11.3030    3.6480   -1.0340 hc        1 MOL      0.048265
    143 H62       -12.1910    2.5890   -2.2210 hc        1 MOL      0.048265
    144 H63       -13.1810    2.9300    0.2750 hc        1 MOL      0.018643
    145 H64       -13.1180    1.2940   -0.5150 hc        1 MOL      0.018643
    146 H65       -11.2020    2.9160    1.1840 h1        1 MOL      0.154764
    147 H66       -11.9790    1.4040    1.7480 h1        1 MOL      0.154764
    148 N13        -8.4150    2.7910   -0.7100 n         1 MOL     -0.094009
    149 C50        -7.1710    3.4830   -0.9120 c3        1 MOL      0.099634
    150 C51        -7.4990    4.8330   -1.5140 c         1 MOL      0.528902
    151 O21        -7.9580    5.7930   -0.8790 o         1 MOL     -0.579337
    152 C52        -6.3910    3.5710    0.3700 c3        1 MOL      0.070173
    153 C53        -7.1740    3.9130    1.6460 c3        1 MOL     -0.209291
    154 C54        -6.2630    3.9790    2.9490 c         1 MOL      0.779000
    155 O22        -6.6800    3.4650    3.9590 o         1 MOL     -0.729751
    156 O23        -5.2170    4.7030    3.0420 o         1 MOL     -0.729751
    157 H67        -8.7570    2.8150    0.2360 hn        1 MOL      0.093476
    158 H68        -6.5560    2.9040   -1.5850 h1        1 MOL      0.090718
    159 H69        -5.6260    4.3380    0.2770 hc        1 MOL     -0.042166
    160 H70        -5.8600    2.6310    0.5130 hc        1 MOL     -0.042166
    161 H71        -7.8420    3.0750    1.8500 hc        1 MOL      0.017049
    162 H72        -7.6880    4.8530    1.4740 hc        1 MOL      0.017049
    163 N14        -7.2750    5.1550   -2.8000 n         1 MOL     -0.400268
    164 C55        -6.5020    4.3630   -3.8110 c3        1 MOL     -0.017363
    165 H73        -5.9840    3.5440   -3.3120 h1        1 MOL      0.039804
    166 H74        -7.1860    3.9580   -4.5570 h1        1 MOL      0.039804
    167 H75        -5.7720    5.0090   -4.2980 h1        1 MOL      0.039804
    168 H76        -7.5270    6.0660   -3.1710 hn        1 MOL      0.277924
    169 Ca1         6.3760    0.1740   -1.9090 Ca        1 MOL      1.766604
    170 O24         5.2860    0.5480   -4.3550 oh        1 MOL     -0.844849
    171 H77         4.4670    0.8820   -4.7190 ho        1 MOL      0.418560
    172 H78         5.9560    0.8040   -4.9900 ho        1 MOL      0.418560
    173 O25         3.9380   -1.0860   -1.8000 oh        1 MOL     -0.844849
    174 H79         3.0640   -1.0210   -2.1930 ho        1 MOL      0.418560
    175 H80         3.8050   -1.5840   -0.9990 ho        1 MOL      0.418560
    176 O26         7.6840   -1.1520   -3.8930 oh        1 MOL     -0.844849
    177 H81         7.6620   -0.6660   -4.7150 ho        1 MOL      0.418560
    178 H82         8.3560   -1.8230   -4.0350 ho        1 MOL      0.418560
    179 O27         4.2300    1.8380   -1.9970 oh        1 MOL     -0.844849
    180 H83         3.8190    1.7020   -1.1380 ho        1 MOL      0.418560
    181 H84         3.5060    1.9190   -2.6110 ho        1 MOL      0.418560
@<TRIPOS>BOND
     1    1    2 1   
     2    1    4 1   
     3    1    5 1   
     4    1    6 1   
     5    2    3 2   
     6    2    7 1   
     7    7    8 1   
     8    7   15 1   
     9    8    9 1   
    10    8   11 1   
    11    8   16 1   
    12    9   10 2   
    13    9   19 1   
    14   11   12 1   
    15   11   17 1   
    16   11   18 1   
    17   12   13 1   
    18   12   14 1   
    19   19   20 1   
    20   19   24 1   
    21   20   21 1   
    22   20   23 1   
    23   20   25 1   
    24   21   22 2   
    25   21   29 1   
    26   23   26 1   
    27   23   27 1   
    28   23   28 1   
    29   29   30 1   
    30   29   37 1   
    31   30   31 1   
    32   30   33 1   
    33   30   38 1   
    34   31   32 2   
    35   31   41 1   
    36   33   34 1   
    37   33   39 1   
    38   33   40 1   
    39   34   35 1   
    40   34   36 1   
    41   41   42 1   
    42   41   45 1   
    43   42   43 1   
    44   42   46 1   
    45   42   47 1   
    46   43   44 2   
    47   43   48 1   
    48   48   49 1   
    49   48   56 1   
    50   49   50 1   
    51   49   52 1   
    52   49   57 1   
    53   50   51 2   
    54   50   62 1   
    55   52   53 1   
    56   52   58 1   
    57   52   59 1   
    58   53   54 1   
    59   53   55 2   
    60   54   60 1   
    61   54   61 1   
    62   62   63 1   
    63   62   66 1   
    64   63   64 1   
    65   63   67 1   
    66   63   68 1   
    67   64   65 2   
    68   64   69 1   
    69   69   70 1   
    70   69   76 1   
    71   70   71 1   
    72   70   73 1   
    73   70   77 1   
    74   71   72 2   
    75   71   83 1   
    76   73   74 1   
    77   73   75 1   
    78   73   78 1   
    79   74   80 1   
    80   74   81 1   
    81   74   82 1   
    82   75   79 1   
    83   83   84 1   
    84   83   91 1   
    85   84   85 1   
    86   84   87 1   
    87   84   92 1   
    88   85   86 2   
    89   85  102 1   
    90   87   88 1   
    91   87   89 1   
    92   87   93 1   
    93   88   90 1   
    94   88   94 1   
    95   88   95 1   
    96   89   96 1   
    97   89   97 1   
    98   89   98 1   
    99   90   99 1   
   100   90  100 1   
   101   90  101 1   
   102  102  103 1   
   103  102  110 1   
   104  103  104 1   
   105  103  106 1   
   106  103  111 1   
   107  104  105 2   
   108  104  114 1   
   109  106  107 1   
   110  106  112 1   
   111  106  113 1   
   112  107  108 1   
   113  107  109 1   
   114  114  115 1   
   115  114  125 1   
   116  115  116 1   
   117  115  118 1   
   118  115  126 1   
   119  116  117 2   
   120  116  134 1   
   121  118  119 1   
   122  118  127 1   
   123  118  128 1   
   124  119  120 ar  
   125  119  121 ar  
   126  120  122 ar  
   127  120  129 1   
   128  121  123 ar  
   129  121  130 1   
   130  122  124 ar  
   131  122  131 1   
   132  123  124 ar  
   133  123  132 1   
   134  124  133 1   
   135  134  135 1   
   136  134  140 1   
   137  135  136 1   
   138  135  138 1   
   139  135  141 1   
   140  136  137 2   
   141  136  148 1   
   142  138  139 1   
   143  138  142 1   
   144  138  143 1   
   145  139  140 1   
   146  139  144 1   
   147  139  145 1   
   148  140  146 1   
   149  140  147 1   
   150  148  149 1   
   151  148  157 1   
   152  149  150 1   
   153  149  152 1   
   154  149  158 1   
   155  150  151 2   
   156  150  163 1   
   157  152  153 1   
   158  152  159 1   
   159  152  160 1   
   160  153  154 1   
   161  153  161 1   
   162  153  162 1   
   163  154  155 1   
   164  154  156 1   
   165  163  164 1   
   166  163  168 1   
   167  164  165 1   
   168  164  166 1   
   169  164  167 1   
   170  170  171 1   
   171  170  172 1   
   172  173  174 1   
   173  173  175 1   
   174  176  177 1   
   175  176  178 1   
   176  179  180 1   
   177  179  181 1   
@<TRIPOS>SUBSTRUCTURE
     1 MOL         1 TEMP              0 ****  ****    0 ROOT
