@<TRIPOS>MOLECULE
MOL
  184   179     1     0     0
SMALL
resp


@<TRIPOS>ATOM
      1 C1        -11.1340    6.3390    1.8560 c3        1 MOL     -0.398054
      2 C2        -10.0820    5.7900    0.8380 c         1 MOL      0.680401
      3 O1         -9.6740    6.3700   -0.1850 o         1 MOL     -0.589765
      4 H1        -12.0020    5.6790    1.8700 hc        1 MOL      0.107170
      5 H2        -10.6910    6.3790    2.8510 hc        1 MOL      0.107170
      6 H3        -11.4440    7.3390    1.5540 hc        1 MOL      0.107170
      7 N1         -9.6900    4.4900    1.0290 n         1 MOL     -0.479661
      8 C3         -9.9130    3.6000    2.1290 c3        1 MOL      0.099580
      9 C4         -9.8130    2.1450    1.6260 c         1 MOL      0.544070
     10 O2         -9.1500    1.9680    0.5640 o         1 MOL     -0.567811
     11 C5         -8.8710    3.8470    3.1800 c3        1 MOL     -0.169043
     12 C6         -7.3220    3.7790    2.8580 c         1 MOL      0.526930
     13 O3         -6.5380    4.5030    3.5430 o         1 MOL     -0.597568
     14 O4         -6.8260    3.1120    1.8780 o         1 MOL     -0.597568
     15 H4         -9.2990    4.0780    0.1840 hn        1 MOL      0.273332
     16 H5        -10.8800    3.7480    2.6000 h1        1 MOL      0.042098
     17 H6         -9.0430    3.1710    4.0270 hc        1 MOL      0.052279
     18 H7         -9.2570    4.7670    3.6300 hc        1 MOL      0.052279
     19 N2        -10.3360    1.1730    2.3730 n         1 MOL     -0.788152
     20 C7         -9.8280   -0.1900    2.4430 c3        1 MOL      0.855123
     21 C8        -10.2660   -1.2320    1.4560 c         1 MOL      0.212931
     22 O5        -10.6560   -2.3800    1.8160 o         1 MOL     -0.507303
     23 C9         -9.9870   -0.6440    3.9210 c3        1 MOL     -0.361800
     24 H8        -10.8900    1.4720    3.1660 hn        1 MOL      0.347485
     25 H9         -8.7650   -0.0730    2.2770 h1        1 MOL     -0.174762
     26 H10        -9.8910    0.1920    4.6220 hc        1 MOL      0.077196
     27 H11       -11.0100   -0.9970    4.0420 hc        1 MOL      0.077196
     28 H12        -9.2020   -1.3680    4.1100 hc        1 MOL      0.077196
     29 N3        -10.2000   -0.9540    0.1420 n         1 MOL     -0.317005
     30 C10       -10.1830   -1.9110   -1.0430 c3        1 MOL      0.031901
     31 C11        -8.9220   -2.8350   -1.0570 c         1 MOL      0.561598
     32 O6         -8.0790   -2.7070   -0.1550 o         1 MOL     -0.451592
     33 C12       -10.2450   -1.0130   -2.3340 c3        1 MOL     -0.233378
     34 C13        -9.0460   -0.0860   -2.5310 c         1 MOL      0.919959
     35 O7         -8.2220    0.0880   -1.5850 o         1 MOL     -0.739383
     36 O8         -9.0770    0.5030   -3.6310 o         1 MOL     -0.739383
     37 H13        -9.8620   -0.0360   -0.0870 hn        1 MOL      0.223166
     38 H14       -11.0360   -2.5870   -1.0610 h1        1 MOL      0.073131
     39 H15       -11.1670   -0.4300   -2.2850 hc        1 MOL      0.039942
     40 H16       -10.2870   -1.7210   -3.1560 hc        1 MOL      0.039942
     41 N4         -8.7870   -3.7130   -2.0650 n         1 MOL     -0.461513
     42 C14        -7.8070   -4.7710   -2.1550 c3        1 MOL     -0.221491
     43 C15        -6.3830   -4.3870   -2.5220 c         1 MOL      0.602638
     44 O9         -5.6970   -5.2970   -3.0650 o         1 MOL     -0.577167
     45 H17        -9.4340   -3.7080   -2.8430 hn        1 MOL      0.328763
     46 H18        -8.1570   -5.3840   -2.9880 h1        1 MOL      0.138502
     47 H19        -7.8880   -5.3500   -1.2480 h1        1 MOL      0.138502
     48 N5         -5.9570   -3.1490   -2.4060 n         1 MOL     -0.354685
     49 C16        -4.5280   -2.7450   -2.8120 c3        1 MOL      0.068824
     50 C17        -3.4060   -2.9400   -1.6880 c         1 MOL      0.637698
     51 O10        -3.6690   -3.0310   -0.4450 o         1 MOL     -0.528790
     52 C18        -4.5340   -1.3970   -3.4720 c3        1 MOL     -0.034536
     53 C19        -4.1190   -0.2440   -2.5030 c         1 MOL      0.509025
     54 N6         -3.1360    0.4850   -2.9070 n         1 MOL     -0.827417
     55 O11        -4.7760    0.0930   -1.4990 o         1 MOL     -0.511087
     56 H20        -6.5100   -2.4680   -1.9060 hn        1 MOL      0.151664
     57 H21        -4.2790   -3.4390   -3.6100 h1        1 MOL      0.078652
     58 H22        -5.4760   -1.1120   -3.9250 hc        1 MOL      0.012306
     59 H23        -3.8030   -1.3890   -4.2940 hc        1 MOL      0.012306
     60 H24        -2.7680    0.2810   -3.8300 hn        1 MOL      0.412129
     61 H25        -2.7390    1.1280   -2.2400 hn        1 MOL      0.412129
     62 N7         -2.1200   -3.0620   -2.0910 n         1 MOL     -0.724268
     63 C20        -1.0350   -3.2610   -1.1930 c3        1 MOL      0.473329
     64 C21        -0.8410   -4.7140   -0.8130 c         1 MOL      0.422361
     65 O12        -1.2370   -5.6580   -1.5410 o         1 MOL     -0.530043
     66 H26        -2.0060   -3.1500   -3.0840 hn        1 MOL      0.334017
     67 H27        -1.1760   -2.6600   -0.3040 h1        1 MOL     -0.026214
     68 H28        -0.1070   -2.9100   -1.6450 h1        1 MOL     -0.026214
     69 N8         -0.2490   -5.0220    0.3710 n         1 MOL     -0.482465
     70 C22         0.2530   -4.1080    1.3940 c3        1 MOL     -0.037189
     71 C23         1.5180   -3.4380    0.9420 c         1 MOL      0.439454
     72 O13         2.2990   -3.9730    0.1330 o         1 MOL     -0.496426
     73 C24         0.3400   -4.8540    2.7420 c3        1 MOL      0.436104
     74 C25        -1.0610   -5.1960    3.2830 c3        1 MOL     -0.440580
     75 O14         1.0620   -6.1000    2.6830 oh        1 MOL     -0.645135
     76 H29        -0.3260   -6.0070    0.5590 hn        1 MOL      0.326076
     77 H30        -0.6010   -3.4690    1.6360 h1        1 MOL      0.055825
     78 H31         0.8310   -4.2830    3.5290 h1        1 MOL      0.016477
     79 H32         2.0010   -6.0080    2.8240 ho        1 MOL      0.426351
     80 H33        -0.9720   -5.8460    4.1560 hc        1 MOL      0.120843
     81 H34        -1.6820   -4.3230    3.4420 hc        1 MOL      0.120843
     82 H35        -1.6430   -5.8080    2.5890 hc        1 MOL      0.120843
     83 N9          1.8210   -2.2520    1.5210 n         1 MOL     -0.387414
     84 C26         2.9240   -1.3780    1.1990 c3        1 MOL      0.251560
     85 C27         3.8850   -1.0880    2.4120 c         1 MOL      0.389831
     86 O15         3.2700   -0.8470    3.4880 o         1 MOL     -0.556173
     87 C28         2.3820   -0.0810    0.5940 c3        1 MOL      0.028160
     88 C29         1.3640   -0.1630   -0.5960 c3        1 MOL     -0.279928
     89 C30         3.3030    0.9310    0.0120 c3        1 MOL     -0.211739
     90 C31         1.9650   -0.7160   -1.8740 c3        1 MOL     -0.071384
     91 H36         1.3290   -2.0530    2.3730 hn        1 MOL      0.206900
     92 H37         3.5000   -1.8740    0.4170 h1        1 MOL      0.051867
     93 H38         1.8300    0.3920    1.4090 hc        1 MOL      0.025908
     94 H39         0.8160    0.7700   -0.7120 hc        1 MOL      0.074329
     95 H40         0.6210   -0.8650   -0.2350 hc        1 MOL      0.074329
     96 H41         2.8530    1.5680   -0.7560 hc        1 MOL      0.078025
     97 H42         3.7190    1.4800    0.8510 hc        1 MOL      0.078025
     98 H43         4.2320    0.5540   -0.4280 hc        1 MOL      0.078025
     99 H44         2.5230   -1.6500   -1.7600 hc        1 MOL      0.032051
    100 H45         1.2950   -0.8540   -2.7110 hc        1 MOL      0.032051
    101 H46         2.7490   -0.0690   -2.2690 hc        1 MOL      0.032051
    102 N10         5.2070   -1.0030    2.3550 n         1 MOL     -0.336441
    103 C32         6.0050   -1.4400    1.2160 c3        1 MOL      0.172186
    104 C33         7.4650   -0.8330    1.2430 c         1 MOL      0.355659
    105 O16         7.9990   -0.3700    2.2340 o         1 MOL     -0.477890
    106 C34         6.1820   -2.9230    1.3210 c3        1 MOL     -0.158053
    107 C35         6.6360   -3.4760    2.7430 c         1 MOL      0.720063
    108 O17         5.8710   -3.4650    3.7250 o         1 MOL     -0.714409
    109 O18         7.7670   -4.0510    2.7890 o         1 MOL     -0.714409
    110 H47         5.6860   -0.7670    3.2100 hn        1 MOL      0.319295
    111 H48         5.4810   -1.0640    0.3370 h1        1 MOL     -0.026354
    112 H49         6.9900   -3.2350    0.6630 hc        1 MOL     -0.005569
    113 H50         5.2310   -3.3520    0.9950 hc        1 MOL     -0.005569
    114 N11         8.1900   -0.9490    0.1510 n         1 MOL     -0.383392
    115 C36         9.5710   -0.5190   -0.0720 c3        1 MOL      0.496629
    116 C37         9.8040   -0.1480   -1.6040 c         1 MOL      0.134737
    117 O19         9.3130   -0.8020   -2.5260 o         1 MOL     -0.496049
    118 C38        10.5650   -1.5720    0.4800 c3        1 MOL     -0.418279
    119 C39        12.0220   -1.2020    0.4500 ca        1 MOL      0.382728
    120 C40        12.8460   -1.5630   -0.6410 ca        1 MOL     -0.396162
    121 C41        12.5940   -0.4780    1.5160 ca        1 MOL     -0.396162
    122 C42        14.1090   -1.0650   -0.6920 ca        1 MOL      0.121819
    123 C43        13.8940   -0.0200    1.4060 ca        1 MOL      0.121819
    124 C44        14.7510   -0.3430    0.3070 ca        1 MOL     -0.367768
    125 H51         7.7270   -1.2540   -0.6870 hn        1 MOL      0.234546
    126 H52         9.6810    0.3610    0.5700 h1        1 MOL      0.004241
    127 H53        10.3540   -2.5380    0.0210 hc        1 MOL      0.127006
    128 H54        10.3970   -1.5600    1.5590 hc        1 MOL      0.127006
    129 H55        12.3770   -1.9200   -1.5480 ha        1 MOL      0.182466
    130 H56        12.0130   -0.0870    2.3290 ha        1 MOL      0.182466
    131 H57        14.6700   -1.3660   -1.5600 ha        1 MOL      0.048300
    132 H58        14.2500    0.5860    2.2190 ha        1 MOL      0.048300
    133 H59        15.7240    0.1250    0.2460 ha        1 MOL      0.150076
    134 N12        10.6130    0.8540   -1.9280 n         1 MOL      0.065996
    135 C45        10.9200    2.0190   -1.0050 c3        1 MOL      0.004239
    136 C46         9.7310    2.9680   -0.7580 c         1 MOL      0.498152
    137 O20         9.8710    3.7490    0.1830 o         1 MOL     -0.475487
    138 C47        12.1160    2.7900   -1.6860 c3        1 MOL     -0.188023
    139 C48        12.6240    1.8660   -2.7520 c3        1 MOL      0.114172
    140 C49        11.3720    1.0840   -3.1500 c3        1 MOL     -0.177721
    141 H60        11.1880    1.5350   -0.0770 h1        1 MOL      0.059902
    142 H61        11.6460    3.6780   -2.1100 hc        1 MOL      0.064436
    143 H62        12.7970    3.2190   -0.9570 hc        1 MOL      0.064436
    144 H63        13.2120    2.2700   -3.5680 hc        1 MOL     -0.015130
    145 H64        13.2580    1.0850   -2.3270 hc        1 MOL     -0.015130
    146 H65        10.8120    1.6670   -3.8700 h1        1 MOL      0.071422
    147 H66        11.7260    0.2020   -3.6900 h1        1 MOL      0.071422
    148 N13         8.5250    2.8970   -1.4260 n         1 MOL     -0.573780
    149 C50         7.3110    3.6820   -1.1050 c3        1 MOL      0.334513
    150 C51         6.5410    4.0250   -2.3400 c         1 MOL      0.341915
    151 O21         6.4850    3.2720   -3.3480 o         1 MOL     -0.566656
    152 C52         6.4190    2.8900   -0.1700 c3        1 MOL     -0.277135
    153 C53         7.0160    2.5530    1.1920 c3        1 MOL     -0.074247
    154 C54         7.4460    3.7060    2.0630 c         1 MOL      0.686963
    155 O22         8.1070    3.5350    3.0890 o         1 MOL     -0.698412
    156 O23         7.0030    4.8810    1.7610 o         1 MOL     -0.698412
    157 H67         8.4350    2.2830   -2.2250 hn        1 MOL      0.294262
    158 H68         7.6560    4.5830   -0.5990 h1        1 MOL      0.056520
    159 H69         6.2900    1.9420   -0.6930 hc        1 MOL      0.053180
    160 H70         5.4250    3.3160   -0.0290 hc        1 MOL      0.053180
    161 H71         7.8530    1.8720    1.0510 hc        1 MOL      0.026989
    162 H72         6.3220    1.9180    1.7470 hc        1 MOL      0.026989
    163 N14         5.8650    5.1600   -2.3630 n         1 MOL     -0.299730
    164 C55         5.8120    6.2970   -1.3830 c3        1 MOL     -0.134588
    165 H73         5.0670    6.0810   -0.6170 h1        1 MOL      0.080515
    166 H74         6.7890    6.4180   -0.9140 h1        1 MOL      0.080515
    167 H75         5.5420    7.2140   -1.9050 h1        1 MOL      0.080515
    168 H76         5.3650    5.2530   -3.2370 hn        1 MOL      0.248249
    169 Ca1        -6.7450    1.7200   -0.4530 Ca        1 MOL      1.704944
    170 O24        -8.1930    3.5420   -1.7480 oh        1 MOL     -0.810705
    171 H77        -8.9970    3.4420   -2.2420 ho        1 MOL      0.391778
    172 H78        -7.7640    4.3120   -2.1420 ho        1 MOL      0.391778
    173 O25        -5.2940    3.9400   -0.4540 oh        1 MOL     -0.810705
    174 H79        -4.9910    4.5490    0.2210 ho        1 MOL      0.391778
    175 H80        -5.6270    4.5090   -1.1500 ho        1 MOL      0.391778
    176 O26        -6.6860   -0.6380    0.8870 oh        1 MOL     -0.810705
    177 H81        -6.1780   -0.9590    1.6350 ho        1 MOL      0.391778
    178 H82        -7.2200   -1.3920    0.6280 ho        1 MOL      0.391778
    179 O27        -6.7020    1.8220   -3.4170 oh        1 MOL     -0.810705
    180 H83        -7.3950    1.2220   -3.6800 ho        1 MOL      0.391778
    181 H84        -6.8070    2.5680   -4.0090 ho        1 MOL      0.391778
    182 O28        -4.4850    1.8600    1.5080 oh        1 MOL     -0.810705
    183 H85        -4.0410    1.3720    2.2120 ho        1 MOL      0.391778
    184 H86        -5.1540    2.3760    1.9620 ho        1 MOL      0.391778
@<TRIPOS>BOND
     1    1    2 1   
     2    1    4 1   
     3    1    5 1   
     4    1    6 1   
     5    2    3 2   
     6    2    7 1   
     7    7    8 1   
     8    7   15 1   
     9    8    9 1   
    10    8   11 1   
    11    8   16 1   
    12    9   10 2   
    13    9   19 1   
    14   11   12 1   
    15   11   17 1   
    16   11   18 1   
    17   12   13 1   
    18   12   14 1   
    19   19   20 1   
    20   19   24 1   
    21   20   21 1   
    22   20   23 1   
    23   20   25 1   
    24   21   22 2   
    25   21   29 1   
    26   23   26 1   
    27   23   27 1   
    28   23   28 1   
    29   29   30 1   
    30   29   37 1   
    31   30   31 1   
    32   30   33 1   
    33   30   38 1   
    34   31   32 2   
    35   31   41 1   
    36   33   34 1   
    37   33   39 1   
    38   33   40 1   
    39   34   35 1   
    40   34   36 1   
    41   41   42 1   
    42   41   45 1   
    43   42   43 1   
    44   42   46 1   
    45   42   47 1   
    46   43   44 2   
    47   43   48 1   
    48   48   49 1   
    49   48   56 1   
    50   49   50 1   
    51   49   52 1   
    52   49   57 1   
    53   50   51 2   
    54   50   62 1   
    55   52   53 1   
    56   52   58 1   
    57   52   59 1   
    58   53   54 1   
    59   53   55 2   
    60   54   60 1   
    61   54   61 1   
    62   62   63 1   
    63   62   66 1   
    64   63   64 1   
    65   63   67 1   
    66   63   68 1   
    67   64   65 2   
    68   64   69 1   
    69   69   70 1   
    70   69   76 1   
    71   70   71 1   
    72   70   73 1   
    73   70   77 1   
    74   71   72 2   
    75   71   83 1   
    76   73   74 1   
    77   73   75 1   
    78   73   78 1   
    79   74   80 1   
    80   74   81 1   
    81   74   82 1   
    82   75   79 1   
    83   83   84 1   
    84   83   91 1   
    85   84   85 1   
    86   84   87 1   
    87   84   92 1   
    88   85   86 2   
    89   85  102 1   
    90   87   88 1   
    91   87   89 1   
    92   87   93 1   
    93   88   90 1   
    94   88   94 1   
    95   88   95 1   
    96   89   96 1   
    97   89   97 1   
    98   89   98 1   
    99   90   99 1   
   100   90  100 1   
   101   90  101 1   
   102  102  103 1   
   103  102  110 1   
   104  103  104 1   
   105  103  106 1   
   106  103  111 1   
   107  104  105 2   
   108  104  114 1   
   109  106  107 1   
   110  106  112 1   
   111  106  113 1   
   112  107  108 1   
   113  107  109 1   
   114  114  115 1   
   115  114  125 1   
   116  115  116 1   
   117  115  118 1   
   118  115  126 1   
   119  116  117 2   
   120  116  134 1   
   121  118  119 1   
   122  118  127 1   
   123  118  128 1   
   124  119  120 ar  
   125  119  121 ar  
   126  120  122 ar  
   127  120  129 1   
   128  121  123 ar  
   129  121  130 1   
   130  122  124 ar  
   131  122  131 1   
   132  123  124 ar  
   133  123  132 1   
   134  124  133 1   
   135  134  135 1   
   136  134  140 1   
   137  135  136 1   
   138  135  138 1   
   139  135  141 1   
   140  136  137 2   
   141  136  148 1   
   142  138  139 1   
   143  138  142 1   
   144  138  143 1   
   145  139  140 1   
   146  139  144 1   
   147  139  145 1   
   148  140  146 1   
   149  140  147 1   
   150  148  149 1   
   151  148  157 1   
   152  149  150 1   
   153  149  152 1   
   154  149  158 1   
   155  150  151 2   
   156  150  163 1   
   157  152  153 1   
   158  152  159 1   
   159  152  160 1   
   160  153  154 1   
   161  153  161 1   
   162  153  162 1   
   163  154  155 1   
   164  154  156 1   
   165  163  164 1   
   166  163  168 1   
   167  164  165 1   
   168  164  166 1   
   169  164  167 1   
   170  170  171 1   
   171  170  172 1   
   172  173  174 1   
   173  173  175 1   
   174  176  177 1   
   175  176  178 1   
   176  179  180 1   
   177  179  181 1   
   178  182  183 1   
   179  182  184 1   
@<TRIPOS>SUBSTRUCTURE
     1 MOL         1 TEMP              0 ****  ****    0 ROOT
