@<TRIPOS>MOLECULE
MOL
  195   189     1     0     0
SMALL
resp


@<TRIPOS>ATOM
      1 C1         11.1880    5.3430   -3.5340 c3        1 MOL     -0.214529
      2 C2         11.1560    4.0070   -2.7910 c         1 MOL      0.468575
      3 O1         12.1430    3.2270   -2.9070 o         1 MOL     -0.539695
      4 H1         10.9500    5.1800   -4.5860 hc        1 MOL      0.058374
      5 H2         10.4550    6.0210   -3.0980 hc        1 MOL      0.058374
      6 H3         12.1830    5.7820   -3.4530 hc        1 MOL      0.058374
      7 N1         10.1930    3.7290   -1.9270 n         1 MOL     -0.008437
      8 C3         10.0790    2.3990   -1.2800 c3        1 MOL     -0.350279
      9 C4          8.6710    1.8010   -1.5070 c         1 MOL      0.687254
     10 O2          7.6610    2.5330   -1.5920 o         1 MOL     -0.767480
     11 C5         10.3940    2.3560    0.1830 c3        1 MOL     -0.186744
     12 C6          9.7330    3.5060    0.9940 c         1 MOL      0.577351
     13 O3          8.5800    3.7400    0.6410 o         1 MOL     -0.605626
     14 O4         10.4140    3.9740    1.9560 o         1 MOL     -0.605626
     15 H4          9.3620    4.2890   -1.8240 hn        1 MOL      0.065612
     16 H5         10.7880    1.7570   -1.7930 h1        1 MOL      0.096249
     17 H6         11.4740    2.5140    0.1900 hc        1 MOL      0.125222
     18 H7         10.1320    1.3430    0.4740 hc        1 MOL      0.125222
     19 N2          8.5920    0.4780   -1.6100 n         1 MOL     -0.486783
     20 C7          7.2730   -0.2330   -1.6800 c3        1 MOL      0.031750
     21 C8          6.4330   -0.2420   -0.3450 c         1 MOL      0.468528
     22 O5          5.3160   -0.6200   -0.4000 o         1 MOL     -0.468772
     23 C9          7.5660   -1.6940   -2.1750 c3        1 MOL     -0.096468
     24 C10         8.4950   -1.8800   -3.4280 c3        1 MOL     -0.132470
     25 C11         8.8520   -3.4080   -3.6960 c3        1 MOL     -0.182135
     26 C12         9.6700   -3.6010   -4.9730 c3        1 MOL      0.144670
     27 N3          9.8670   -4.9660   -5.3190 n4        1 MOL     -0.244733
     28 H8          9.5100    0.0360   -1.6460 hn        1 MOL      0.356563
     29 H9          6.6360    0.1910   -2.4590 h1        1 MOL      0.096171
     30 H10         6.5920   -2.1720   -2.2680 hc        1 MOL      0.082268
     31 H11         8.1710   -2.2460   -1.4610 hc        1 MOL      0.082268
     32 H12         9.4670   -1.4410   -3.2170 hc        1 MOL      0.052583
     33 H13         8.0820   -1.2970   -4.2610 hc        1 MOL      0.052583
     34 H14         7.9210   -3.9780   -3.6410 hc        1 MOL      0.097453
     35 H15         9.4650   -3.7520   -2.8610 hc        1 MOL      0.097453
     36 H16        10.6910   -3.2240   -4.9470 hx        1 MOL      0.050999
     37 H17         9.3130   -3.1430   -5.8870 hx        1 MOL      0.050999
     38 H18         9.0410   -5.5340   -5.2220 hn        1 MOL      0.239019
     39 H19        10.1730   -5.0750   -6.2790 hn        1 MOL      0.239019
     40 H20        10.5380   -5.3420   -4.6680 hn        1 MOL      0.239019
     41 N4          7.1220    0.0620    0.7470 n         1 MOL     -0.207778
     42 C13         6.5440    0.2890    2.0580 c3        1 MOL     -0.487295
     43 C14         5.3480    1.2640    1.9510 c         1 MOL      0.630717
     44 O6          5.4600    2.3540    1.3910 o         1 MOL     -0.513184
     45 C15         7.6390    0.7750    3.0130 c3        1 MOL     -0.003636
     46 C16         8.9720   -0.0040    3.0810 c         1 MOL      0.618983
     47 O7          9.1600   -1.0580    2.4180 o         1 MOL     -0.626324
     48 O8          9.9230    0.5110    3.7470 o         1 MOL     -0.626324
     49 H21         8.0910    0.3440    0.6580 hn        1 MOL      0.179613
     50 H22         6.1620   -0.6790    2.3910 h1        1 MOL      0.252882
     51 H23         7.2690    0.7830    4.0360 hc        1 MOL      0.042497
     52 H24         7.8940    1.8110    2.8230 hc        1 MOL      0.042497
     53 N5          4.2150    1.0230    2.6050 n         1 MOL     -0.468099
     54 C17         4.0500   -0.1000    3.5710 c3        1 MOL     -0.059727
     55 C18         3.8370   -1.5210    2.9420 c         1 MOL      0.627072
     56 O9          3.9800   -1.7290    1.7270 o         1 MOL     -0.526771
     57 H25         3.4230    1.6410    2.4660 hn        1 MOL      0.334097
     58 H26         3.2990    0.0760    4.3360 h1        1 MOL      0.095084
     59 H27         4.9380   -0.2540    4.1810 h1        1 MOL      0.095084
     60 N6          3.4970   -2.5240    3.8040 n         1 MOL     -0.600153
     61 C19         3.3340   -3.9270    3.5170 c3        1 MOL      0.273415
     62 C20         1.9120   -4.3690    3.0480 c         1 MOL      0.355526
     63 O10         0.8600   -3.8410    3.4230 o         1 MOL     -0.436675
     64 C21         3.8070   -4.8400    4.6340 c3        1 MOL     -0.074933
     65 C22         3.0280   -4.5200    5.9120 c         1 MOL      0.653227
     66 O11         1.9780   -5.1830    6.1450 o         1 MOL     -0.623831
     67 O12         3.5420   -3.6820    6.7090 o         1 MOL     -0.623831
     68 H28         3.2910   -2.2880    4.7620 hn        1 MOL      0.273084
     69 H29         3.9610   -4.2060    2.6780 h1        1 MOL     -0.021885
     70 H30         4.8810   -4.7020    4.8060 hc        1 MOL     -0.012228
     71 H31         3.5820   -5.8320    4.2550 hc        1 MOL     -0.012228
     72 N7          1.8860   -5.4410    2.2210 n         1 MOL     -0.291885
     73 C23         0.6990   -6.0340    1.5540 c3        1 MOL     -0.054834
     74 C24         0.1130   -5.3750    0.3160 c         1 MOL      0.611258
     75 O13        -1.1050   -5.4320    0.0820 o         1 MOL     -0.561252
     76 H32         2.8190   -5.7600    2.0280 hn        1 MOL      0.240899
     77 H33        -0.1380   -6.1370    2.2430 h1        1 MOL      0.069462
     78 H34         0.9630   -7.0580    1.2850 h1        1 MOL      0.069462
     79 N8          1.0020   -4.6510   -0.4190 n         1 MOL     -0.533700
     80 C25         0.6460   -3.7950   -1.5190 c3        1 MOL      0.056900
     81 C26        -0.0400   -2.5500   -1.0000 c         1 MOL      0.542457
     82 O14         0.2270   -2.1710    0.1840 o         1 MOL     -0.462871
     83 C27         1.7660   -3.5590   -2.5420 c3        1 MOL      0.360632
     84 C28         2.8630   -2.5620   -2.0840 c3        1 MOL     -0.279452
     85 O15         2.3380   -4.7780   -2.9570 oh        1 MOL     -0.590150
     86 H35         1.9640   -4.8920   -0.2620 hn        1 MOL      0.277923
     87 H36        -0.1500   -4.2170   -2.1360 h1        1 MOL      0.015383
     88 H37         1.2400   -3.1060   -3.3770 h1        1 MOL     -0.058907
     89 H38         1.5910   -5.1590   -3.4210 ho        1 MOL      0.368939
     90 H39         3.5130   -3.1490   -1.4410 hc        1 MOL      0.085475
     91 H40         3.5210   -2.1060   -2.8270 hc        1 MOL      0.085475
     92 H41         2.3880   -1.7650   -1.5160 hc        1 MOL      0.085475
     93 N9         -0.7970   -1.7910   -1.8210 n         1 MOL     -0.471309
     94 C29        -1.1760   -0.4190   -1.4290 c3        1 MOL     -0.037863
     95 C30        -2.5220   -0.4130   -0.7390 c         1 MOL      0.622392
     96 O16        -2.7110    0.4750    0.1280 o         1 MOL     -0.519275
     97 C31        -1.1560    0.5590   -2.6570 c3        1 MOL      0.158391
     98 C32         0.3110    0.6570   -3.2420 c3        1 MOL     -0.155883
     99 C33        -1.6570    1.9420   -2.1990 c3        1 MOL     -0.223084
    100 C34         0.3430    1.1500   -4.7340 c3        1 MOL     -0.225858
    101 H42        -1.1100   -2.1710   -2.7080 hn        1 MOL      0.280245
    102 H43        -0.5060   -0.0650   -0.6500 h1        1 MOL      0.099384
    103 H44        -1.8530    0.2580   -3.4290 hc        1 MOL      0.019614
    104 H45         0.8920   -0.2640   -3.2000 hc        1 MOL      0.073655
    105 H46         0.8160    1.4150   -2.6510 hc        1 MOL      0.073655
    106 H47        -1.4540    2.7730   -2.8770 hc        1 MOL      0.059143
    107 H48        -2.7360    1.8900   -2.1030 hc        1 MOL      0.059143
    108 H49        -1.2580    2.2990   -1.2400 hc        1 MOL      0.059143
    109 H50        -0.2340    2.0820   -4.7490 hc        1 MOL      0.056385
    110 H51         1.2910    1.3020   -5.2380 hc        1 MOL      0.056385
    111 H52        -0.1190    0.3660   -5.3290 hc        1 MOL      0.056385
    112 N10        -3.3900   -1.4970   -0.9290 n         1 MOL     -0.632853
    113 C35        -4.5850   -1.7870   -0.1340 c3        1 MOL     -0.118319
    114 C36        -5.6660   -2.2560   -1.2320 c         1 MOL      0.750479
    115 O17        -5.3050   -3.0720   -2.1050 o         1 MOL     -0.589083
    116 C37        -4.3710   -2.9610    0.8300 c3        1 MOL      0.476291
    117 C38        -3.4530   -2.5200    2.0240 c3        1 MOL     -0.550019
    118 O18        -5.5660   -3.3920    1.4050 oh        1 MOL     -0.658382
    119 H53        -3.2760   -2.0290   -1.7770 hn        1 MOL      0.298198
    120 H54        -4.9190   -0.8670    0.3560 h1        1 MOL      0.104556
    121 H55        -3.9390   -3.8570    0.3740 h1        1 MOL      0.052810
    122 H56        -5.5350   -3.0500    2.2980 ho        1 MOL      0.389747
    123 H57        -3.4180   -3.3380    2.7300 hc        1 MOL      0.161620
    124 H58        -2.4380   -2.6060    1.6470 hc        1 MOL      0.161620
    125 H59        -3.6280   -1.5370    2.4580 hc        1 MOL      0.161620
    126 N11        -6.8840   -1.8760   -1.0510 n         1 MOL     -0.584023
    127 C39        -7.9900   -2.3310   -1.8300 c3        1 MOL      0.007853
    128 C40        -9.3060   -1.4610   -1.8160 c         1 MOL      0.639532
    129 O19        -9.9380   -1.4070   -2.8510 o         1 MOL     -0.559737
    130 C41        -8.4130   -3.8250   -1.6250 c3        1 MOL      0.309952
    131 C42        -9.5600   -4.5820   -2.2380 c3        1 MOL     -0.515260
    132 O20        -8.9350   -3.7650   -0.3320 oh        1 MOL     -0.617061
    133 H60        -7.1230   -1.3980   -0.1890 hn        1 MOL      0.313688
    134 H61        -7.6910   -2.3590   -2.8780 h1        1 MOL      0.073276
    135 H62        -7.5590   -4.5030   -1.6670 h1        1 MOL      0.086552
    136 H63        -9.2800   -4.6240   -0.0990 ho        1 MOL      0.386985
    137 H64       -10.5080   -4.0720   -2.0530 hc        1 MOL      0.129150
    138 H65        -9.6200   -4.6050   -3.3240 hc        1 MOL      0.129150
    139 H66        -9.4790   -5.6320   -1.9880 hc        1 MOL      0.129150
    140 N12        -9.5790   -0.7360   -0.7480 n         1 MOL     -0.533237
    141 C43       -10.7150    0.1800   -0.6380 c3        1 MOL      0.059802
    142 C44       -10.4210    1.2660    0.3970 c         1 MOL      0.581137
    143 O21        -9.7800    0.9150    1.3780 o         1 MOL     -0.508832
    144 C45       -12.0360   -0.4850   -0.2680 c3        1 MOL     -0.050066
    145 C46       -13.3530    0.1050   -0.7890 c3        1 MOL      0.003134
    146 C47       -14.6490   -0.6410   -0.6160 c3        1 MOL      0.008470
    147 C48       -15.7320    0.1770   -1.3000 c3        1 MOL      0.037544
    148 N13       -16.8880   -0.7210   -1.4690 n4        1 MOL     -0.142126
    149 H67        -8.9230   -0.7780    0.0290 hn        1 MOL      0.313682
    150 H68       -10.8750    0.6110   -1.6320 h1        1 MOL      0.068611
    151 H69       -12.0940   -0.6160    0.8180 hc        1 MOL      0.047772
    152 H70       -12.0020   -1.4920   -0.6740 hc        1 MOL      0.047772
    153 H71       -13.2130    0.3800   -1.8350 hc        1 MOL      0.014236
    154 H72       -13.4650    0.9810   -0.1500 hc        1 MOL      0.014236
    155 H73       -14.8760   -0.8840    0.4250 hc        1 MOL      0.019581
    156 H74       -14.5500   -1.6190   -1.0920 hc        1 MOL      0.019581
    157 H75       -15.4310    0.6320   -2.2410 hx        1 MOL      0.075155
    158 H76       -16.0000    1.0050   -0.6430 hx        1 MOL      0.075155
    159 H77       -17.2000   -1.0940   -0.5840 hn        1 MOL      0.209230
    160 H78       -17.7700   -0.3740   -1.8120 hn        1 MOL      0.209230
    161 H79       -16.6490   -1.4810   -2.0950 hn        1 MOL      0.209230
    162 N14       -10.8650    2.4780    0.2470 n         1 MOL     -0.562774
    163 C49       -10.6430    3.5980    1.1410 c3        1 MOL      0.407374
    164 C50        -9.1290    3.8360    1.3680 c         1 MOL      0.182407
    165 O22        -8.7080    3.6900    2.5440 o         1 MOL     -0.477624
    166 C51       -11.3060    4.9390    0.6720 c3        1 MOL     -0.025841
    167 C52       -10.9980    6.0380    1.6610 c3        1 MOL     -0.180943
    168 C53       -11.9380    7.1900    1.5570 c         1 MOL      0.755866
    169 O23       -12.4160    7.3690    0.4480 o         1 MOL     -0.674022
    170 O24       -12.2950    7.9000    2.5210 o         1 MOL     -0.674022
    171 H80       -11.4160    2.6090   -0.5950 hn        1 MOL      0.216583
    172 H81       -11.0420    3.3820    2.1400 h1        1 MOL      0.026313
    173 H82       -12.3630    4.7260    0.7860 hc        1 MOL      0.005755
    174 H83       -11.0300    5.1670   -0.3480 hc        1 MOL      0.005755
    175 H84        -9.9970    6.3730    1.3810 hc        1 MOL      0.036026
    176 H85       -10.9800    5.5960    2.6550 hc        1 MOL      0.036026
    177 N15        -8.2480    4.1880    0.3720 n         1 MOL     -0.203083
    178 C54        -8.4520    4.4480   -1.0880 c3        1 MOL     -0.239200
    179 H86        -7.5770    4.1060   -1.6430 h1        1 MOL      0.107578
    180 H87        -9.3340    3.9110   -1.4340 h1        1 MOL      0.107578
    181 H88        -8.5890    5.5170   -1.2510 h1        1 MOL      0.107578
    182 H89        -7.2840    4.2380    0.6710 hn        1 MOL      0.264101
    183 Ca1         6.2000    4.6030    0.0920 Ca        1 MOL      1.713123
    184 O25         4.5340    3.4410   -1.5700 oh        1 MOL     -0.884787
    185 H90         5.1390    3.8580   -2.1780 ho        1 MOL      0.431178
    186 H91         4.2970    2.6200   -2.0040 ho        1 MOL      0.431178
    187 O26         8.0270    6.5300   -0.3380 oh        1 MOL     -0.884787
    188 H92         7.7540    7.0650   -1.0900 ho        1 MOL      0.431178
    189 H93         8.9510    6.7450   -0.2100 ho        1 MOL      0.431178
    190 O27         6.7430    5.4220    2.5650 oh        1 MOL     -0.884787
    191 H94         7.6690    5.6480    2.5250 ho        1 MOL      0.431178
    192 H95         6.5510    5.3550    3.5010 ho        1 MOL      0.431178
    193 O28         3.4920    4.7750    1.0480 oh        1 MOL     -0.884787
    194 H96         2.8290    5.3570    1.4300 ho        1 MOL      0.431178
    195 H97         2.9830    4.1180    0.5790 ho        1 MOL      0.431178
@<TRIPOS>BOND
     1    1    2 1   
     2    1    4 1   
     3    1    5 1   
     4    1    6 1   
     5    2    3 2   
     6    2    7 1   
     7    7    8 1   
     8    7   15 1   
     9    8    9 1   
    10    8   11 1   
    11    8   16 1   
    12    9   10 2   
    13    9   19 1   
    14   11   12 1   
    15   11   17 1   
    16   11   18 1   
    17   12   13 1   
    18   12   14 1   
    19   19   20 1   
    20   19   28 1   
    21   20   21 1   
    22   20   23 1   
    23   20   29 1   
    24   21   22 2   
    25   21   41 1   
    26   23   24 1   
    27   23   30 1   
    28   23   31 1   
    29   24   25 1   
    30   24   32 1   
    31   24   33 1   
    32   25   26 1   
    33   25   34 1   
    34   25   35 1   
    35   26   27 1   
    36   26   36 1   
    37   26   37 1   
    38   27   38 1   
    39   27   39 1   
    40   27   40 1   
    41   41   42 1   
    42   41   49 1   
    43   42   43 1   
    44   42   45 1   
    45   42   50 1   
    46   43   44 2   
    47   43   53 1   
    48   45   46 1   
    49   45   51 1   
    50   45   52 1   
    51   46   47 1   
    52   46   48 1   
    53   53   54 1   
    54   53   57 1   
    55   54   55 1   
    56   54   58 1   
    57   54   59 1   
    58   55   56 2   
    59   55   60 1   
    60   60   61 1   
    61   60   68 1   
    62   61   62 1   
    63   61   64 1   
    64   61   69 1   
    65   62   63 2   
    66   62   72 1   
    67   64   65 1   
    68   64   70 1   
    69   64   71 1   
    70   65   66 1   
    71   65   67 1   
    72   72   73 1   
    73   72   76 1   
    74   73   74 1   
    75   73   77 1   
    76   73   78 1   
    77   74   75 2   
    78   74   79 1   
    79   79   80 1   
    80   79   86 1   
    81   80   81 1   
    82   80   83 1   
    83   80   87 1   
    84   81   82 2   
    85   81   93 1   
    86   83   84 1   
    87   83   85 1   
    88   83   88 1   
    89   84   90 1   
    90   84   91 1   
    91   84   92 1   
    92   85   89 1   
    93   93   94 1   
    94   93  101 1   
    95   94   95 1   
    96   94   97 1   
    97   94  102 1   
    98   95   96 2   
    99   95  112 1   
   100   97   98 1   
   101   97   99 1   
   102   97  103 1   
   103   98  100 1   
   104   98  104 1   
   105   98  105 1   
   106   99  106 1   
   107   99  107 1   
   108   99  108 1   
   109  100  109 1   
   110  100  110 1   
   111  100  111 1   
   112  112  113 1   
   113  112  119 1   
   114  113  114 1   
   115  113  116 1   
   116  113  120 1   
   117  114  115 2   
   118  114  126 1   
   119  116  117 1   
   120  116  118 1   
   121  116  121 1   
   122  117  123 1   
   123  117  124 1   
   124  117  125 1   
   125  118  122 1   
   126  126  127 1   
   127  126  133 1   
   128  127  128 1   
   129  127  130 1   
   130  127  134 1   
   131  128  129 2   
   132  128  140 1   
   133  130  131 1   
   134  130  132 1   
   135  130  135 1   
   136  131  137 1   
   137  131  138 1   
   138  131  139 1   
   139  132  136 1   
   140  140  141 1   
   141  140  149 1   
   142  141  142 1   
   143  141  144 1   
   144  141  150 1   
   145  142  143 2   
   146  142  162 1   
   147  144  145 1   
   148  144  151 1   
   149  144  152 1   
   150  145  146 1   
   151  145  153 1   
   152  145  154 1   
   153  146  147 1   
   154  146  155 1   
   155  146  156 1   
   156  147  148 1   
   157  147  157 1   
   158  147  158 1   
   159  148  159 1   
   160  148  160 1   
   161  148  161 1   
   162  162  163 1   
   163  162  171 1   
   164  163  164 1   
   165  163  166 1   
   166  163  172 1   
   167  164  165 2   
   168  164  177 1   
   169  166  167 1   
   170  166  173 1   
   171  166  174 1   
   172  167  168 1   
   173  167  175 1   
   174  167  176 1   
   175  168  169 1   
   176  168  170 1   
   177  177  178 1   
   178  177  182 1   
   179  178  179 1   
   180  178  180 1   
   181  178  181 1   
   182  184  185 1   
   183  184  186 1   
   184  187  188 1   
   185  187  189 1   
   186  190  191 1   
   187  190  192 1   
   188  193  194 1   
   189  193  195 1   
@<TRIPOS>SUBSTRUCTURE
     1 MOL         1 TEMP              0 ****  ****    0 ROOT
