@<TRIPOS>MOLECULE
MOL
  192   187     1     0     0
SMALL
resp


@<TRIPOS>ATOM
      1 C1          4.3370    4.0060   -3.6960 c3        1 MOL     -0.442252
      2 C2          4.9780    2.9770   -2.7170 c         1 MOL      0.773055
      3 O1          4.2340    2.5040   -1.8350 o         1 MOL     -0.558485
      4 H1          3.3130    3.7060   -3.9190 hc        1 MOL      0.100030
      5 H2          4.3330    4.9940   -3.2360 hc        1 MOL      0.100030
      6 H3          4.9150    4.0380   -4.6200 hc        1 MOL      0.100030
      7 N1          6.2300    2.7070   -2.9890 n         1 MOL     -0.757518
      8 C3          6.9810    1.5500   -2.4160 c3        1 MOL      0.468900
      9 C4          6.0950    0.4070   -1.8930 c         1 MOL      0.280145
     10 O2          5.7290    0.3480   -0.7500 o         1 MOL     -0.512948
     11 C5          7.9570    2.0950   -1.3660 c3        1 MOL     -0.134967
     12 C6          7.4930    3.1610   -0.3560 c         1 MOL      0.669743
     13 O3          6.2990    3.2570   -0.0870 o         1 MOL     -0.693256
     14 O4          8.3240    3.7940    0.2870 o         1 MOL     -0.693256
     15 H4          6.6700    3.3740   -3.6050 hn        1 MOL      0.360604
     16 H5          7.5460    1.0880   -3.2320 h1        1 MOL     -0.040078
     17 H6          8.7570    2.4660   -2.0030 hc        1 MOL      0.003129
     18 H7          8.4350    1.2600   -0.8490 hc        1 MOL      0.003129
     19 N2          5.5590   -0.3720   -2.8140 n         1 MOL     -0.471816
     20 C7          4.7590   -1.6520   -2.7800 c3        1 MOL      0.198822
     21 C8          5.4240   -2.8640   -2.0170 c         1 MOL      0.278785
     22 O5          5.5060   -3.9930   -2.4880 o         1 MOL     -0.509518
     23 C9          3.2650   -1.4280   -2.4190 c3        1 MOL      0.184948
     24 C10         2.3450   -2.6440   -2.4470 c3        1 MOL     -0.144500
     25 C11         2.7090   -0.3230   -3.3330 c3        1 MOL     -0.111197
     26 C12         2.2130   -3.3640   -3.8320 c3        1 MOL     -0.294613
     27 H8          5.7580   -0.0080   -3.7430 hn        1 MOL      0.257582
     28 H9          4.7580   -1.9960   -3.8130 h1        1 MOL      0.019993
     29 H10         3.2430   -1.0610   -1.3930 hc        1 MOL     -0.025265
     30 H11         1.3630   -2.3560   -2.0700 hc        1 MOL      0.101964
     31 H12         2.8010   -3.4090   -1.8180 hc        1 MOL      0.101964
     32 H13         3.2360    0.6320   -3.2690 hc        1 MOL      0.015186
     33 H14         2.7670   -0.5600   -4.3970 hc        1 MOL      0.015186
     34 H15         1.6780   -0.0940   -3.0730 hc        1 MOL      0.015186
     35 H16         1.7640   -4.3290   -3.5850 hc        1 MOL      0.061280
     36 H17         1.5780   -2.8590   -4.5570 hc        1 MOL      0.061280
     37 H18         3.2150   -3.6300   -4.1790 hc        1 MOL      0.061280
     38 N3          6.0010   -2.6480   -0.7930 n         1 MOL     -0.062204
     39 C13         6.8170   -3.5970   -0.0220 c3        1 MOL      0.057645
     40 C14         6.0200   -4.8540    0.4100 c         1 MOL      0.622550
     41 O6          6.6290   -5.9410    0.2280 o         1 MOL     -0.604295
     42 C15         7.5720   -2.8760    1.0760 c3        1 MOL     -0.298639
     43 C16         8.3560   -1.6350    0.6190 c         1 MOL      0.815292
     44 O7          9.0490   -1.7350   -0.3780 o         1 MOL     -0.723774
     45 O8          8.2970   -0.6230    1.3400 o         1 MOL     -0.723774
     46 H19         5.9080   -1.7160   -0.4050 hn        1 MOL      0.182086
     47 H20         7.6050   -3.9760   -0.6800 h1        1 MOL      0.049595
     48 H21         8.2430   -3.5590    1.6030 hc        1 MOL      0.060188
     49 H22         6.8580   -2.6730    1.8760 hc        1 MOL      0.060188
     50 N4          4.7310   -4.8970    0.8590 n         1 MOL     -0.632234
     51 C17         3.8640   -3.7790    1.2710 c3        1 MOL      0.178156
     52 C18         4.1700   -3.4310    2.7490 c         1 MOL      0.465803
     53 O9          5.1290   -3.9020    3.3930 o         1 MOL     -0.533858
     54 H23         4.4260   -5.8220    1.1360 hn        1 MOL      0.318602
     55 H24         2.8500   -4.1690    1.3540 h1        1 MOL      0.037834
     56 H25         3.6590   -2.9740    0.5650 h1        1 MOL      0.037834
     57 N5          3.3160   -2.5870    3.4320 n         1 MOL     -0.478880
     58 C19         2.0620   -2.0220    2.9690 c3        1 MOL      0.051409
     59 C20         2.2840   -1.1180    1.7670 c         1 MOL      0.115376
     60 O10         3.2680   -0.3750    1.6960 o         1 MOL     -0.471038
     61 C21         1.4890   -1.1640    4.0830 c3        1 MOL     -0.288515
     62 C22         2.4380   -0.2050    4.7450 c         1 MOL      0.783217
     63 O11         3.4530   -0.7360    5.3390 o         1 MOL     -0.689386
     64 O12         2.0230    1.0170    4.9520 o         1 MOL     -0.689386
     65 H26         3.7060   -2.3370    4.3240 hn        1 MOL      0.334536
     66 H27         1.4440   -2.8320    2.5910 h1        1 MOL      0.051581
     67 H28         0.9750   -1.7250    4.8600 hc        1 MOL      0.080790
     68 H29         0.6860   -0.5400    3.7190 hc        1 MOL      0.080790
     69 N6          1.2620   -0.8760    0.9620 n         1 MOL     -0.006843
     70 C23        -0.1350   -1.3580    1.1710 c3        1 MOL     -0.011811
     71 C24        -0.5580   -2.7060    0.5490 c         1 MOL      0.461258
     72 O13         0.1800   -3.3710   -0.1690 o         1 MOL     -0.547724
     73 H30         1.4400   -0.2980    0.1490 hn        1 MOL      0.134838
     74 H31        -0.8140   -0.6000    0.7740 h1        1 MOL      0.040626
     75 H32        -0.3050   -1.3210    2.2490 h1        1 MOL      0.040626
     76 N7         -1.7630   -3.1400    0.8530 n         1 MOL     -0.293471
     77 C25        -2.2940   -4.4220    0.4430 c3        1 MOL      0.013478
     78 C26        -3.1280   -4.3190   -0.8800 c         1 MOL      0.415442
     79 O14        -3.3080   -5.3660   -1.5050 o         1 MOL     -0.531299
     80 C27        -3.1060   -5.2040    1.5280 c3        1 MOL     -0.130324
     81 C28        -4.2810   -4.4620    2.2690 c3        1 MOL     -0.235419
     82 C29        -5.5060   -4.2610    1.4030 c         1 MOL      0.510756
     83 N8         -6.1200   -5.3410    0.9670 n         1 MOL     -0.714073
     84 O15        -5.8210   -3.1440    1.0480 o         1 MOL     -0.545349
     85 H33        -2.2840   -2.6570    1.5780 hn        1 MOL      0.225358
     86 H34        -1.4080   -5.0480    0.3410 h1        1 MOL      0.136069
     87 H35        -2.3970   -5.3470    2.3480 hc        1 MOL      0.063798
     88 H36        -3.4130   -6.1720    1.1510 hc        1 MOL      0.063798
     89 H37        -3.9910   -3.4790    2.6360 hc        1 MOL      0.103280
     90 H38        -4.6530   -4.9810    3.1580 hc        1 MOL      0.103280
     91 H39        -5.8260   -6.2430    1.2880 hn        1 MOL      0.358120
     92 H40        -6.8170   -5.1410    0.2620 hn        1 MOL      0.358120
     93 N9         -3.5540   -3.1600   -1.3760 n         1 MOL     -0.136154
     94 C30        -3.9880   -2.9630   -2.7260 c3        1 MOL     -0.084174
     95 C31        -5.3760   -2.3810   -2.9290 c         1 MOL      0.375689
     96 O16        -5.8570   -2.3400   -4.0940 o         1 MOL     -0.536326
     97 C32        -2.9440   -2.1740   -3.5490 c3        1 MOL      0.163238
     98 C33        -1.6330   -2.8060   -3.9580 c3        1 MOL     -0.218410
     99 C34        -2.6290   -0.7030   -3.0710 c3        1 MOL     -0.218410
    100 H41        -3.3830   -2.2960   -0.8730 hn        1 MOL      0.134042
    101 H42        -4.0360   -3.9020   -3.2660 h1        1 MOL      0.120395
    102 H43        -3.3820   -2.0170   -4.5360 hc        1 MOL      0.013923
    103 H44        -1.7470   -3.8060   -4.3740 hc        1 MOL      0.056332
    104 H45        -1.0640   -2.1560   -4.6130 hc        1 MOL      0.056332
    105 H46        -0.9140   -2.9040   -3.1340 hc        1 MOL      0.056332
    106 H47        -3.4610   -0.0310   -3.2670 hc        1 MOL      0.056332
    107 H48        -2.4610   -0.6320   -1.9890 hc        1 MOL      0.056332
    108 H49        -1.7960   -0.3050   -3.6600 hc        1 MOL      0.056332
    109 N10        -5.9840   -1.8170   -1.8500 n         1 MOL     -0.254694
    110 C35        -7.3180   -1.1630   -1.8700 c3        1 MOL      0.037543
    111 C36        -7.2840    0.2190   -1.2200 c         1 MOL      0.437162
    112 O17        -8.3170    0.9200   -1.2990 o         1 MOL     -0.518537
    113 C37        -8.3400   -2.1050   -1.1430 c3        1 MOL     -0.195928
    114 C38        -8.3000   -3.5490   -1.6390 c         1 MOL      0.668902
    115 N11        -8.7460   -3.8140   -2.8720 n         1 MOL     -0.805330
    116 O18        -8.0420   -4.4720   -0.9200 o         1 MOL     -0.540141
    117 H50        -5.6000   -2.1090   -0.9620 hn        1 MOL      0.301747
    118 H51        -7.5610   -1.0410   -2.9210 h1        1 MOL      0.084690
    119 H52        -9.3170   -1.6950   -1.3800 hc        1 MOL      0.058425
    120 H53        -8.1010   -2.1660   -0.0850 hc        1 MOL      0.058425
    121 H54        -8.9620   -3.0450   -3.4830 hn        1 MOL      0.371602
    122 H55        -8.7710   -4.7750   -3.1710 hn        1 MOL      0.371602
    123 N12        -6.2060    0.6970   -0.5830 n         1 MOL     -0.379631
    124 C39        -6.1450    2.0840   -0.0630 c3        1 MOL      0.188588
    125 C40        -4.7410    2.6990    0.2200 c         1 MOL      0.373960
    126 O19        -3.8120    1.9820    0.6680 o         1 MOL     -0.363491
    127 C41        -6.8950    2.0610    1.3560 c3        1 MOL     -0.391656
    128 C42        -6.3800    1.0330    2.3440 ca        1 MOL      0.342052
    129 C43        -7.0970   -0.1470    2.4440 ca        1 MOL     -0.409330
    130 C44        -5.2460    1.2720    3.1080 ca        1 MOL     -0.409330
    131 C45        -6.6500   -1.1020    3.4030 ca        1 MOL     -0.114684
    132 C46        -4.6690    0.2480    3.9300 ca        1 MOL     -0.114684
    133 C47        -5.4800   -0.9010    4.1700 ca        1 MOL      0.227101
    134 O20        -5.1270   -1.9240    5.0060 oh        1 MOL     -0.507805
    135 H56        -5.3310    0.1880   -0.6160 hn        1 MOL      0.212729
    136 H57        -6.6720    2.7730   -0.7170 h1        1 MOL      0.034474
    137 H58        -7.9660    1.9660    1.1540 hc        1 MOL      0.115853
    138 H59        -6.7080    2.9740    1.9130 hc        1 MOL      0.115853
    139 H60        -7.9270   -0.4270    1.8100 ha        1 MOL      0.226662
    140 H61        -4.7360    2.2190    3.0570 ha        1 MOL      0.226662
    141 H62        -7.2170   -2.0140    3.4900 ha        1 MOL      0.135234
    142 H63        -3.7310    0.3470    4.4440 ha        1 MOL      0.135234
    143 H64        -5.6470   -2.7180    5.1330 ho        1 MOL      0.347415
    144 N13        -4.7460    4.0040    0.0350 n         1 MOL     -0.545552
    145 C48        -3.6500    4.9450    0.3350 c3        1 MOL      0.118705
    146 C49        -2.4320    4.8190   -0.5150 c         1 MOL      0.521925
    147 O21        -1.7230    5.8170   -0.5490 o         1 MOL     -0.519109
    148 C50        -3.3080    5.0690    1.8720 c3        1 MOL     -0.172834
    149 C51        -4.4460    5.6230    2.7830 c3        1 MOL     -0.249984
    150 C52        -4.2430    7.1050    2.9410 c         1 MOL      0.652300
    151 O22        -3.2390    7.4750    3.5690 o         1 MOL     -0.712508
    152 O23        -4.9940    7.9270    2.2980 o         1 MOL     -0.712508
    153 H65        -5.5960    4.4190   -0.3240 hn        1 MOL      0.350299
    154 H66        -4.1050    5.9010    0.0640 h1        1 MOL      0.071568
    155 H67        -2.4050    5.6680    1.9460 hc        1 MOL      0.143287
    156 H68        -3.1280    4.1020    2.3340 hc        1 MOL      0.143287
    157 H69        -4.3730    5.0370    3.6910 hc        1 MOL      0.041587
    158 H70        -5.3920    5.3250    2.3500 hc        1 MOL      0.041587
    159 N14        -2.0790    3.6850   -1.1750 n         1 MOL     -0.460235
    160 C53        -0.9580    3.7240   -2.0970 c3        1 MOL     -0.003239
    161 C54        -1.2950    4.5100   -3.4020 c         1 MOL      0.321418
    162 O24        -0.4300    4.7640   -4.2790 o         1 MOL     -0.513278
    163 C55        -0.4860    2.3480   -2.3900 c3        1 MOL      0.093661
    164 C56        -0.1990    1.3620   -1.1690 c3        1 MOL      0.149776
    165 C57         0.8140    1.8700   -0.1620 c         1 MOL      0.644585
    166 O25         0.3650    2.5440    0.7890 o         1 MOL     -0.704420
    167 O26         2.0370    1.4830   -0.2930 o         1 MOL     -0.704420
    168 H71        -2.6020    2.8180   -1.1200 hn        1 MOL      0.206807
    169 H72        -0.0770    4.2300   -1.7040 h1        1 MOL      0.169221
    170 H73         0.4950    2.4790   -2.8630 hc        1 MOL     -0.010433
    171 H74        -1.1140    1.9450   -3.1780 hc        1 MOL     -0.010433
    172 H75         0.3040    0.4820   -1.5560 hc        1 MOL     -0.085613
    173 H76        -1.0670    1.0670   -0.5830 hc        1 MOL     -0.085613
    174 N15        -2.5030    5.0530   -3.5120 n         1 MOL     -0.127253
    175 C58        -3.1360    5.8100   -4.5730 c3        1 MOL     -0.075129
    176 H77        -4.1580    5.4570   -4.7090 h1        1 MOL      0.051581
    177 H78        -3.1490    6.8670   -4.3080 h1        1 MOL      0.051581
    178 H79        -2.5780    5.6740   -5.4990 h1        1 MOL      0.051581
    179 H80        -3.1090    4.9750   -2.7090 hn        1 MOL      0.157652
    180 Ca1         4.2560    2.0130    0.8600 Ca        1 MOL      1.764048
    181 O27         2.3000    2.2580    2.6920 oh        1 MOL     -0.856283
    182 H81         1.4970    2.1750    2.1810 ho        1 MOL      0.413770
    183 H82         2.1510    1.7040    3.4560 ho        1 MOL      0.413770
    184 O28         6.0490    0.5980    2.3060 oh        1 MOL     -0.856283
    185 H83         6.6920    0.1340    1.7700 ho        1 MOL      0.413770
    186 H84         6.0260    0.1030    3.1280 ho        1 MOL      0.413770
    187 O29         3.8580    4.7600    0.6300 oh        1 MOL     -0.856283
    188 H85         4.0740    5.3660    1.3390 ho        1 MOL      0.413770
    189 H86         2.9360    4.9240    0.4450 ho        1 MOL      0.413770
    190 O30         5.1760    3.4040    3.0010 oh        1 MOL     -0.856283
    191 H87         5.4900    3.0450    3.8330 ho        1 MOL      0.413770
    192 H88         5.8740    3.9900    2.7140 ho        1 MOL      0.413770
@<TRIPOS>BOND
     1    1    2 1   
     2    1    4 1   
     3    1    5 1   
     4    1    6 1   
     5    2    3 2   
     6    2    7 1   
     7    7    8 1   
     8    7   15 1   
     9    8    9 1   
    10    8   11 1   
    11    8   16 1   
    12    9   10 2   
    13    9   19 1   
    14   11   12 1   
    15   11   17 1   
    16   11   18 1   
    17   12   13 1   
    18   12   14 1   
    19   19   20 1   
    20   19   27 1   
    21   20   21 1   
    22   20   23 1   
    23   20   28 1   
    24   21   22 2   
    25   21   38 1   
    26   23   24 1   
    27   23   25 1   
    28   23   29 1   
    29   24   26 1   
    30   24   30 1   
    31   24   31 1   
    32   25   32 1   
    33   25   33 1   
    34   25   34 1   
    35   26   35 1   
    36   26   36 1   
    37   26   37 1   
    38   38   39 1   
    39   38   46 1   
    40   39   40 1   
    41   39   42 1   
    42   39   47 1   
    43   40   41 2   
    44   40   50 1   
    45   42   43 1   
    46   42   48 1   
    47   42   49 1   
    48   43   44 1   
    49   43   45 1   
    50   50   51 1   
    51   50   54 1   
    52   51   52 1   
    53   51   55 1   
    54   51   56 1   
    55   52   53 2   
    56   52   57 1   
    57   57   58 1   
    58   57   65 1   
    59   58   59 1   
    60   58   61 1   
    61   58   66 1   
    62   59   60 2   
    63   59   69 1   
    64   61   62 1   
    65   61   67 1   
    66   61   68 1   
    67   62   63 1   
    68   62   64 1   
    69   69   70 1   
    70   69   73 1   
    71   70   71 1   
    72   70   74 1   
    73   70   75 1   
    74   71   72 2   
    75   71   76 1   
    76   76   77 1   
    77   76   85 1   
    78   77   78 1   
    79   77   80 1   
    80   77   86 1   
    81   78   79 2   
    82   78   93 1   
    83   80   81 1   
    84   80   87 1   
    85   80   88 1   
    86   81   82 1   
    87   81   89 1   
    88   81   90 1   
    89   82   83 1   
    90   82   84 2   
    91   83   91 1   
    92   83   92 1   
    93   93   94 1   
    94   93  100 1   
    95   94   95 1   
    96   94   97 1   
    97   94  101 1   
    98   95   96 2   
    99   95  109 1   
   100   97   98 1   
   101   97   99 1   
   102   97  102 1   
   103   98  103 1   
   104   98  104 1   
   105   98  105 1   
   106   99  106 1   
   107   99  107 1   
   108   99  108 1   
   109  109  110 1   
   110  109  117 1   
   111  110  111 1   
   112  110  113 1   
   113  110  118 1   
   114  111  112 2   
   115  111  123 1   
   116  113  114 1   
   117  113  119 1   
   118  113  120 1   
   119  114  115 1   
   120  114  116 2   
   121  115  121 1   
   122  115  122 1   
   123  123  124 1   
   124  123  135 1   
   125  124  125 1   
   126  124  127 1   
   127  124  136 1   
   128  125  126 2   
   129  125  144 1   
   130  127  128 1   
   131  127  137 1   
   132  127  138 1   
   133  128  129 ar  
   134  128  130 ar  
   135  129  131 ar  
   136  129  139 1   
   137  130  132 ar  
   138  130  140 1   
   139  131  133 ar  
   140  131  141 1   
   141  132  133 ar  
   142  132  142 1   
   143  133  134 1   
   144  134  143 1   
   145  144  145 1   
   146  144  153 1   
   147  145  146 1   
   148  145  148 1   
   149  145  154 1   
   150  146  147 2   
   151  146  159 1   
   152  148  149 1   
   153  148  155 1   
   154  148  156 1   
   155  149  150 1   
   156  149  157 1   
   157  149  158 1   
   158  150  151 1   
   159  150  152 1   
   160  159  160 1   
   161  159  168 1   
   162  160  161 1   
   163  160  163 1   
   164  160  169 1   
   165  161  162 2   
   166  161  174 1   
   167  163  164 1   
   168  163  170 1   
   169  163  171 1   
   170  164  165 1   
   171  164  172 1   
   172  164  173 1   
   173  165  166 1   
   174  165  167 1   
   175  174  175 1   
   176  174  179 1   
   177  175  176 1   
   178  175  177 1   
   179  175  178 1   
   180  181  182 1   
   181  181  183 1   
   182  184  185 1   
   183  184  186 1   
   184  187  188 1   
   185  187  189 1   
   186  190  191 1   
   187  190  192 1   
@<TRIPOS>SUBSTRUCTURE
     1 MOL         1 TEMP              0 ****  ****    0 ROOT
