@<TRIPOS>MOLECULE
MOL
  181   177     1     0     0
SMALL
resp


@<TRIPOS>ATOM
      1 C1          6.9580   -5.8430    4.8280 c3        1 MOL     -0.374359
      2 C2          6.4110   -4.6540    4.0200 c         1 MOL      0.703350
      3 O1          5.5870   -3.8980    4.5050 o         1 MOL     -0.578872
      4 H1          6.6240   -6.7750    4.3730 hc        1 MOL      0.089461
      5 H2          8.0480   -5.8100    4.8310 hc        1 MOL      0.089461
      6 H3          6.5890   -5.7870    5.8530 hc        1 MOL      0.089461
      7 N1          6.7380   -4.3910    2.7860 n         1 MOL     -0.520800
      8 C3          7.8400   -4.9400    2.0610 c3        1 MOL      0.027733
      9 C4          7.4500   -5.2500    0.5840 c         1 MOL      0.431591
     10 O2          6.4660   -5.9550    0.3210 o         1 MOL     -0.475805
     11 C5          8.9670   -3.8580    2.0250 c3        1 MOL     -0.214259
     12 C6          8.6110   -2.5050    1.4130 c         1 MOL      0.742715
     13 O3          8.7210   -2.4020    0.1570 o         1 MOL     -0.697521
     14 O4          8.0920   -1.5780    2.1290 o         1 MOL     -0.697521
     15 H4          6.2110   -3.6320    2.4030 hn        1 MOL      0.383079
     16 H5          8.2370   -5.8480    2.5110 h1        1 MOL      0.099279
     17 H6          9.8070   -4.3570    1.5540 hc        1 MOL      0.024799
     18 H7          9.3990   -3.6340    2.9960 hc        1 MOL      0.024799
     19 N2          8.3700   -5.0600   -0.3580 n         1 MOL     -0.353706
     20 C7          8.2470   -5.3450   -1.7340 c3        1 MOL      0.287094
     21 C8          6.9540   -4.7980   -2.3360 c         1 MOL      0.459681
     22 O5          6.3480   -5.3820   -3.2150 o         1 MOL     -0.543571
     23 C9          8.6690   -6.7440   -2.0190 c3        1 MOL     -0.351148
     24 H8          9.2150   -4.5950   -0.0510 hn        1 MOL      0.232123
     25 H9          9.0420   -4.8080   -2.2590 h1        1 MOL      0.027434
     26 H10         7.8900   -7.4850   -1.8200 hc        1 MOL      0.081576
     27 H11         8.8670   -6.7700   -3.0910 hc        1 MOL      0.081576
     28 H12         9.6060   -6.9910   -1.5320 hc        1 MOL      0.081576
     29 N3          6.6060   -3.5660   -1.9710 n         1 MOL     -0.368181
     30 C10         5.4610   -2.7610   -2.3060 c3        1 MOL      0.444846
     31 C11         5.8770   -1.3090   -2.6360 c         1 MOL      0.241506
     32 O6          6.9940   -0.9780   -2.2150 o         1 MOL     -0.465301
     33 C12         4.3550   -2.6740   -1.3040 c3        1 MOL     -0.370430
     34 C13         4.7680   -2.2210    0.0980 c         1 MOL      0.840517
     35 O7          5.2400   -1.0820    0.1820 o         1 MOL     -0.713088
     36 O8          4.5860   -2.8600    1.1340 o         1 MOL     -0.713088
     37 H13         7.2430   -3.3110   -1.2290 hn        1 MOL      0.063135
     38 H14         5.0060   -3.0910   -3.2420 h1        1 MOL     -0.031729
     39 H15         4.0680   -3.7270   -1.2540 hc        1 MOL      0.083834
     40 H16         3.5040   -2.1200   -1.7000 hc        1 MOL      0.083834
     41 N4          5.0500   -0.3650   -3.2230 n         1 MOL     -0.287326
     42 C14         5.4490    0.9650   -3.5190 c3        1 MOL     -0.292666
     43 C15         5.4820    1.9410   -2.3610 c         1 MOL      0.961953
     44 O9          5.6880    1.5040   -1.2360 o         1 MOL     -0.693782
     45 H17         4.0930   -0.6640   -3.3340 hn        1 MOL      0.287374
     46 H18         4.7340    1.4780   -4.1560 h1        1 MOL      0.114404
     47 H19         6.3830    0.9350   -4.0820 h1        1 MOL      0.114404
     48 N5          5.3380    3.2520   -2.6320 n         1 MOL     -0.734109
     49 C16         5.3200    4.2430   -1.6290 c3        1 MOL      0.002333
     50 C17         3.9910    4.1370   -0.8710 c         1 MOL      0.668587
     51 O10         2.9160    4.0820   -1.4390 o         1 MOL     -0.477659
     52 C18         5.6910    5.6060   -2.2550 c3        1 MOL     -0.252336
     53 C19         7.0720    5.6410   -2.8560 c         1 MOL      0.728162
     54 N6          7.1050    6.3800   -3.9270 n         1 MOL     -0.793070
     55 O11         8.0420    4.9860   -2.4360 o         1 MOL     -0.613691
     56 H20         5.2130    3.6100   -3.5720 hn        1 MOL      0.351241
     57 H21         6.0180    3.9660   -0.8330 h1        1 MOL      0.078118
     58 H22         5.8100    6.4120   -1.5230 hc        1 MOL      0.115780
     59 H23         4.9670    5.9170   -3.0060 hc        1 MOL      0.115780
     60 H24         6.3140    6.7280   -4.4550 hn        1 MOL      0.361827
     61 H25         8.0230    6.4350   -4.3460 hn        1 MOL      0.361827
     62 N7          4.0050    4.1850    0.4780 n         1 MOL     -0.611885
     63 C20         2.7290    4.4680    1.2080 c3        1 MOL     -0.004639
     64 C21         2.0660    5.7990    0.7340 c         1 MOL      0.554204
     65 O12         2.6450    6.6460   -0.0150 o         1 MOL     -0.583013
     66 H26         4.8610    4.0930    1.0170 hn        1 MOL      0.336519
     67 H27         2.9220    4.6710    2.2630 h1        1 MOL      0.098707
     68 H28         2.0630    3.6220    1.0810 h1        1 MOL      0.098707
     69 N8          0.8370    6.1750    1.1070 n         1 MOL     -0.443418
     70 C22        -0.1690    5.4550    1.8780 c3        1 MOL      0.191882
     71 C23        -1.1690    4.6730    1.0690 c         1 MOL      0.381968
     72 O13        -1.4130    5.0070   -0.0970 o         1 MOL     -0.515096
     73 C24        -0.7330    6.3970    2.9750 c3        1 MOL      0.392993
     74 C25         0.1310    6.7020    4.1520 c3        1 MOL     -0.191468
     75 O14        -1.1750    7.7030    2.4180 oh        1 MOL     -0.654635
     76 H29         0.3900    6.9240    0.5980 hn        1 MOL      0.290512
     77 H30         0.5210    4.8070    2.4100 h1        1 MOL     -0.078032
     78 H31        -1.5770    5.8500    3.3910 h1        1 MOL     -0.001828
     79 H32        -2.0070    7.5840    1.9560 ho        1 MOL      0.407685
     80 H33         0.1840    5.8080    4.7660 hc        1 MOL      0.041016
     81 H34         1.1240    7.0990    3.9100 hc        1 MOL      0.041016
     82 H35        -0.4750    7.3950    4.7440 hc        1 MOL      0.041016
     83 N9         -1.7590    3.6320    1.6290 n         1 MOL     -0.396081
     84 C26        -2.7540    2.7760    1.0170 c3        1 MOL      0.075078
     85 C27        -3.7630    2.2830    2.0860 c         1 MOL      0.382976
     86 O15        -3.3660    2.1170    3.2220 o         1 MOL     -0.551295
     87 C28        -2.0660    1.5870    0.3220 c3        1 MOL      0.401162
     88 C29        -0.9810    0.8410    1.1550 c3        1 MOL     -0.119150
     89 C30        -1.3870    2.0180   -1.0580 c3        1 MOL     -0.271608
     90 C31        -0.6800   -0.5940    0.7410 c3        1 MOL     -0.014331
     91 H36        -1.5080    3.2860    2.5460 hn        1 MOL      0.223439
     92 H37        -3.2790    3.2440    0.1890 h1        1 MOL      0.101934
     93 H38        -2.8540    0.8860    0.0580 hc        1 MOL     -0.109977
     94 H39        -1.3560    0.7740    2.1800 hc        1 MOL      0.006868
     95 H40        -0.0690    1.4340    1.1560 hc        1 MOL      0.006868
     96 H41        -2.1140    2.5830   -1.6400 hc        1 MOL      0.057951
     97 H42        -0.4750    2.5980   -0.9580 hc        1 MOL      0.057951
     98 H43        -1.1970    1.1230   -1.6450 hc        1 MOL      0.057951
     99 H44         0.1560   -0.9980    1.3230 hc        1 MOL      0.006560
    100 H45        -1.4570   -1.3510    0.8200 hc        1 MOL      0.006560
    101 H46        -0.2610   -0.5790   -0.2670 hc        1 MOL      0.006560
    102 N10        -5.0150    2.1120    1.7270 n         1 MOL     -0.228472
    103 C32        -5.6080    1.9280    0.3680 c3        1 MOL      0.313868
    104 C33        -6.8520    1.0290    0.3460 c         1 MOL      0.282589
    105 O16        -7.3680    0.7550    1.4590 o         1 MOL     -0.488791
    106 C34        -5.8450    3.2550   -0.2990 c3        1 MOL     -0.087601
    107 C35        -6.1630    4.4050    0.6960 c         1 MOL      0.657212
    108 O17        -7.3430    4.4740    1.0800 o         1 MOL     -0.688461
    109 O18        -5.2780    5.1560    1.0960 o         1 MOL     -0.688461
    110 H47        -5.6670    1.7420    2.4050 hn        1 MOL      0.211899
    111 H48        -4.9540    1.3270   -0.2670 h1        1 MOL     -0.087850
    112 H49        -6.6310    3.1210   -1.0390 hc        1 MOL     -0.028484
    113 H50        -4.9150    3.5490   -0.7930 hc        1 MOL     -0.028484
    114 N11        -7.5170    0.6760   -0.8080 n         1 MOL     -0.370724
    115 C36        -8.7910   -0.0500   -0.8350 c3        1 MOL      0.402143
    116 C37        -8.9430   -1.0080   -2.0270 c         1 MOL      0.022053
    117 O19        -8.7540   -0.5740   -3.2060 o         1 MOL     -0.482275
    118 C38        -9.8740    1.0850   -0.7720 c3        1 MOL     -0.258587
    119 C39       -11.1720    0.3810   -0.5960 ca        1 MOL      0.082858
    120 C40       -12.1100    0.2650   -1.6520 ca        1 MOL     -0.113605
    121 C41       -11.4750   -0.2280    0.6680 ca        1 MOL     -0.113605
    122 C42       -13.3200   -0.4650   -1.4980 ca        1 MOL     -0.183232
    123 C43       -12.7990   -0.7500    0.8360 ca        1 MOL     -0.183232
    124 C44       -13.6910   -0.8930   -0.1880 ca        1 MOL     -0.092619
    125 H51        -7.2420    1.0600   -1.7080 hn        1 MOL      0.305620
    126 H52        -8.8010   -0.6550    0.0730 h1        1 MOL     -0.009527
    127 H53        -9.8820    1.6630   -1.6870 hc        1 MOL      0.104089
    128 H54        -9.6190    1.7600    0.0380 hc        1 MOL      0.104089
    129 H55       -11.9010    0.7760   -2.5870 ha        1 MOL      0.118321
    130 H56       -10.7700   -0.2530    1.4880 ha        1 MOL      0.118321
    131 H57       -13.8770   -0.7340   -2.3860 ha        1 MOL      0.112383
    132 H58       -13.0060   -1.2770    1.7560 ha        1 MOL      0.112383
    133 H59       -14.5920   -1.4600   -0.0440 ha        1 MOL      0.088873
    134 N12        -9.0930   -2.3110   -1.8710 n         1 MOL      0.285785
    135 C45        -9.4950   -2.9490   -0.6010 c3        1 MOL     -0.129380
    136 C46        -8.3220   -3.2770    0.3690 c         1 MOL      0.465628
    137 O20        -8.5850   -3.4570    1.5480 o         1 MOL     -0.598777
    138 C47       -10.3290   -4.2200   -1.0260 c3        1 MOL     -0.025300
    139 C48        -9.6570   -4.6180   -2.3580 c3        1 MOL     -0.002839
    140 C49        -9.4390   -3.2290   -2.9530 c3        1 MOL     -0.042766
    141 H60       -10.1360   -2.3140    0.0120 h1        1 MOL      0.089038
    142 H61       -10.3180   -5.0370   -0.3110 hc        1 MOL      0.013523
    143 H62       -11.3800   -3.9340   -1.1230 hc        1 MOL      0.013523
    144 H63        -8.7110   -5.1310   -2.1840 hc        1 MOL      0.013662
    145 H64       -10.3320   -5.2600   -2.9260 hc        1 MOL      0.013662
    146 H65        -8.7800   -3.2690   -3.8250 h1        1 MOL      0.024938
    147 H66       -10.4000   -2.8650   -3.3250 h1        1 MOL      0.024938
    148 N13        -7.0680   -3.3110   -0.0570 n         1 MOL     -0.146847
    149 C50        -5.8210   -3.5470    0.7190 c3        1 MOL      0.091615
    150 C51        -5.6700   -5.0170    1.2130 c         1 MOL      0.328736
    151 O21        -5.1910   -5.8590    0.4330 o         1 MOL     -0.555430
    152 C52        -4.5610   -3.1410   -0.1260 c3        1 MOL     -0.046432
    153 C53        -4.6040   -1.6820   -0.4770 c3        1 MOL      0.055230
    154 C54        -5.2820   -1.3290   -1.7630 c         1 MOL      0.644702
    155 O22        -4.9380   -0.2530   -2.3590 o         1 MOL     -0.666648
    156 O23        -6.0630   -2.1700   -2.3380 o         1 MOL     -0.666648
    157 H67        -6.9230   -3.1210   -1.0450 hn        1 MOL      0.132634
    158 H68        -5.8760   -3.0350    1.6890 h1        1 MOL      0.047312
    159 H69        -4.5040   -3.7940   -1.0010 hc        1 MOL      0.034302
    160 H70        -3.6360   -3.3360    0.4150 hc        1 MOL      0.034302
    161 H71        -3.5840   -1.3350   -0.5700 hc        1 MOL     -0.050891
    162 H72        -5.0260   -1.0890    0.3400 hc        1 MOL     -0.050891
    163 N14        -6.0390   -5.3800    2.4140 n         1 MOL     -0.249858
    164 C55        -6.6870   -4.6010    3.5100 c3        1 MOL     -0.144419
    165 H73        -6.8470   -3.5740    3.1810 h1        1 MOL      0.078896
    166 H74        -7.6470   -5.0540    3.7610 h1        1 MOL      0.078896
    167 H75        -6.0430   -4.6040    4.3900 h1        1 MOL      0.078896
    168 H76        -5.8960   -6.3370    2.6850 hn        1 MOL      0.239883
    169 Ca1         7.4530    0.2280    0.3880 Ca        1 MOL      1.726328
    170 O24         6.4830    1.3500    2.5330 oh        1 MOL     -0.836145
    171 H77         5.7550    1.0970    3.1040 ho        1 MOL      0.402341
    172 H78         6.4820    2.3080    2.5420 ho        1 MOL      0.402341
    173 O25         9.2570    0.8250   -1.4640 oh        1 MOL     -0.836145
    174 H79         8.9610    1.0910   -2.3320 ho        1 MOL      0.402341
    175 H80        10.1700    0.5700   -1.5900 ho        1 MOL      0.402341
    176 O26         9.8380    0.5890    1.3870 oh        1 MOL     -0.836145
    177 H81        10.1040    1.4830    1.1860 ho        1 MOL      0.402341
    178 H82        10.6100    0.1890    1.7890 ho        1 MOL      0.402341
    179 O27         7.9370    2.8980    0.5340 oh        1 MOL     -0.836145
    180 H83         7.8200    3.8420    0.6290 ho        1 MOL      0.402341
    181 H84         8.8740    2.7910    0.3560 ho        1 MOL      0.402341
@<TRIPOS>BOND
     1    1    2 1   
     2    1    4 1   
     3    1    5 1   
     4    1    6 1   
     5    2    3 2   
     6    2    7 1   
     7    7    8 1   
     8    7   15 1   
     9    8    9 1   
    10    8   11 1   
    11    8   16 1   
    12    9   10 2   
    13    9   19 1   
    14   11   12 1   
    15   11   17 1   
    16   11   18 1   
    17   12   13 1   
    18   12   14 1   
    19   19   20 1   
    20   19   24 1   
    21   20   21 1   
    22   20   23 1   
    23   20   25 1   
    24   21   22 2   
    25   21   29 1   
    26   23   26 1   
    27   23   27 1   
    28   23   28 1   
    29   29   30 1   
    30   29   37 1   
    31   30   31 1   
    32   30   33 1   
    33   30   38 1   
    34   31   32 2   
    35   31   41 1   
    36   33   34 1   
    37   33   39 1   
    38   33   40 1   
    39   34   35 1   
    40   34   36 1   
    41   41   42 1   
    42   41   45 1   
    43   42   43 1   
    44   42   46 1   
    45   42   47 1   
    46   43   44 2   
    47   43   48 1   
    48   48   49 1   
    49   48   56 1   
    50   49   50 1   
    51   49   52 1   
    52   49   57 1   
    53   50   51 2   
    54   50   62 1   
    55   52   53 1   
    56   52   58 1   
    57   52   59 1   
    58   53   54 1   
    59   53   55 2   
    60   54   60 1   
    61   54   61 1   
    62   62   63 1   
    63   62   66 1   
    64   63   64 1   
    65   63   67 1   
    66   63   68 1   
    67   64   65 2   
    68   64   69 1   
    69   69   70 1   
    70   69   76 1   
    71   70   71 1   
    72   70   73 1   
    73   70   77 1   
    74   71   72 2   
    75   71   83 1   
    76   73   74 1   
    77   73   75 1   
    78   73   78 1   
    79   74   80 1   
    80   74   81 1   
    81   74   82 1   
    82   75   79 1   
    83   83   84 1   
    84   83   91 1   
    85   84   85 1   
    86   84   87 1   
    87   84   92 1   
    88   85   86 2   
    89   85  102 1   
    90   87   88 1   
    91   87   89 1   
    92   87   93 1   
    93   88   90 1   
    94   88   94 1   
    95   88   95 1   
    96   89   96 1   
    97   89   97 1   
    98   89   98 1   
    99   90   99 1   
   100   90  100 1   
   101   90  101 1   
   102  102  103 1   
   103  102  110 1   
   104  103  104 1   
   105  103  106 1   
   106  103  111 1   
   107  104  105 2   
   108  104  114 1   
   109  106  107 1   
   110  106  112 1   
   111  106  113 1   
   112  107  108 1   
   113  107  109 1   
   114  114  115 1   
   115  114  125 1   
   116  115  116 1   
   117  115  118 1   
   118  115  126 1   
   119  116  117 2   
   120  116  134 1   
   121  118  119 1   
   122  118  127 1   
   123  118  128 1   
   124  119  120 ar  
   125  119  121 ar  
   126  120  122 ar  
   127  120  129 1   
   128  121  123 ar  
   129  121  130 1   
   130  122  124 ar  
   131  122  131 1   
   132  123  124 ar  
   133  123  132 1   
   134  124  133 1   
   135  134  135 1   
   136  134  140 1   
   137  135  136 1   
   138  135  138 1   
   139  135  141 1   
   140  136  137 2   
   141  136  148 1   
   142  138  139 1   
   143  138  142 1   
   144  138  143 1   
   145  139  140 1   
   146  139  144 1   
   147  139  145 1   
   148  140  146 1   
   149  140  147 1   
   150  148  149 1   
   151  148  157 1   
   152  149  150 1   
   153  149  152 1   
   154  149  158 1   
   155  150  151 2   
   156  150  163 1   
   157  152  153 1   
   158  152  159 1   
   159  152  160 1   
   160  153  154 1   
   161  153  161 1   
   162  153  162 1   
   163  154  155 1   
   164  154  156 1   
   165  163  164 1   
   166  163  168 1   
   167  164  165 1   
   168  164  166 1   
   169  164  167 1   
   170  170  171 1   
   171  170  172 1   
   172  173  174 1   
   173  173  175 1   
   174  176  177 1   
   175  176  178 1   
   176  179  180 1   
   177  179  181 1   
@<TRIPOS>SUBSTRUCTURE
     1 MOL         1 TEMP              0 ****  ****    0 ROOT
