@<TRIPOS>MOLECULE
MOL
  192   187     1     0     0
SMALL
resp


@<TRIPOS>ATOM
      1 C1          9.7080    0.8040    1.5920 c3        1 MOL     -0.366096
      2 C2          8.5600    0.0280    1.0050 c         1 MOL      0.705844
      3 O1          7.4830   -0.0640    1.6180 o         1 MOL     -0.661582
      4 H1         10.5420    0.1300    1.7850 hc        1 MOL      0.093266
      5 H2         10.0220    1.5770    0.8900 hc        1 MOL      0.093266
      6 H3          9.3930    1.2680    2.5270 hc        1 MOL      0.093266
      7 N1          8.7180   -0.5090   -0.1760 n         1 MOL     -0.448405
      8 C3          7.6430   -0.9720   -1.0650 c3        1 MOL     -0.062479
      9 C4          7.0510   -2.4030   -0.7750 c         1 MOL      0.447776
     10 O2          7.2000   -3.3000   -1.5870 o         1 MOL     -0.419940
     11 C5          8.1390   -0.7610   -2.4850 c3        1 MOL     -0.235379
     12 C6          9.5030   -1.4290   -2.8920 c         1 MOL      0.712511
     13 O3          9.8680   -1.1590   -4.0790 o         1 MOL     -0.646205
     14 O4         10.1970   -2.1440   -2.1420 o         1 MOL     -0.646205
     15 H4          9.6860   -0.6640   -0.4420 hn        1 MOL      0.250923
     16 H5          6.8420   -0.2420   -0.9360 h1        1 MOL      0.175092
     17 H6          8.1600    0.3120   -2.6960 hc        1 MOL      0.077896
     18 H7          7.3330   -1.1740   -3.0860 hc        1 MOL      0.077896
     19 N2          6.5630   -2.6000    0.5250 n         1 MOL     -0.192327
     20 C7          5.9190   -3.8050    1.0390 c3        1 MOL      0.068339
     21 C8          4.5010   -3.9680    0.4380 c         1 MOL      0.417217
     22 O5          4.1050   -4.9980   -0.0520 o         1 MOL     -0.550500
     23 C9          5.8590   -3.8800    2.5330 c3        1 MOL     -0.013739
     24 C10         7.2460   -3.5910    3.1830 c3        1 MOL     -0.034274
     25 C11         8.5860   -4.2460    2.7290 c3        1 MOL     -0.039150
     26 C12         9.8490   -3.7650    3.4190 c3        1 MOL      0.055604
     27 N3          9.8870   -3.8840    4.8610 n4        1 MOL     -0.314200
     28 H8          6.6700   -1.7840    1.1180 hn        1 MOL      0.157385
     29 H9          6.5640   -4.5940    0.6700 h1        1 MOL      0.033463
     30 H10         5.6590   -4.9280    2.7750 hc        1 MOL      0.030131
     31 H11         5.0640   -3.2680    2.9690 hc        1 MOL      0.030131
     32 H12         7.0820   -3.7100    4.2580 hc        1 MOL     -0.013612
     33 H13         7.4860   -2.5420    2.9920 hc        1 MOL     -0.013612
     34 H14         8.6350   -3.9950    1.6610 hc        1 MOL      0.049047
     35 H15         8.5230   -5.3230    2.9200 hc        1 MOL      0.049047
     36 H16         9.9740   -2.7070    3.1630 hx        1 MOL      0.074992
     37 H17        10.6930   -4.2400    2.9220 hx        1 MOL      0.074992
     38 H18        10.7980   -3.7330    5.2750 hn        1 MOL      0.294628
     39 H19         9.2940   -3.2050    5.3060 hn        1 MOL      0.294628
     40 H20         9.6580   -4.8180    5.1710 hn        1 MOL      0.294628
     41 N4          3.7310   -2.9430    0.1830 n         1 MOL     -0.278186
     42 C13         3.7600   -1.6630    0.9180 c3        1 MOL     -0.044533
     43 C14         4.0780   -0.5160   -0.0370 c         1 MOL     -0.051967
     44 O6          4.0940   -0.7150   -1.2600 o         1 MOL     -0.347755
     45 C15         2.4890   -1.4640    1.7490 c3        1 MOL     -0.120044
     46 C16         1.1910   -1.6930    0.9810 c         1 MOL      0.640010
     47 O7          0.9820   -1.2060   -0.1560 o         1 MOL     -0.635135
     48 O8          0.3480   -2.2960    1.6370 o         1 MOL     -0.635135
     49 H21         2.9020   -3.1700   -0.3480 hn        1 MOL      0.340179
     50 H22         4.5440   -1.5950    1.6770 h1        1 MOL      0.143327
     51 H23         2.4950   -0.5220    2.3020 hc        1 MOL      0.027482
     52 H24         2.5520   -2.2080    2.5430 hc        1 MOL      0.027482
     53 N5          4.2200    0.6570    0.5420 n         1 MOL     -0.158331
     54 C17         4.4050    1.9250   -0.1530 c3        1 MOL     -0.011007
     55 C18         3.1430    2.4860   -0.7870 c         1 MOL      0.589702
     56 O9          2.0880    1.8730   -0.8000 o         1 MOL     -0.363496
     57 H25         4.1730    0.5480    1.5390 hn        1 MOL      0.244483
     58 H26         5.2710    1.8110   -0.7920 h1        1 MOL      0.050076
     59 H27         4.6030    2.7050    0.5740 h1        1 MOL      0.050076
     60 N6          3.3160    3.7040   -1.3640 n         1 MOL     -0.634912
     61 C19         2.3220    4.5150   -2.1450 c3        1 MOL      0.210613
     62 C20         2.7330    5.9660   -2.4390 c         1 MOL      0.439931
     63 O10         3.8940    6.3060   -2.5940 o         1 MOL     -0.513893
     64 C21         2.1910    3.8150   -3.5500 c3        1 MOL     -0.091387
     65 C22         0.9060    3.0130   -3.8410 c         1 MOL      0.663889
     66 O11         0.7200    2.6710   -5.0520 o         1 MOL     -0.693597
     67 O12         0.0770    2.7940   -2.9210 o         1 MOL     -0.693597
     68 H28         4.2040    4.1540   -1.2270 hn        1 MOL      0.314183
     69 H29         1.3530    4.5050   -1.6590 h1        1 MOL      0.006833
     70 H30         3.0940    3.2760   -3.8380 hc        1 MOL      0.049704
     71 H31         2.0610    4.6320   -4.2560 hc        1 MOL      0.049704
     72 N7          1.7650    6.8890   -2.5820 n         1 MOL     -0.446817
     73 C23         0.2710    6.6040   -2.7720 c3        1 MOL     -0.133251
     74 C24        -0.4860    6.3510   -1.4200 c         1 MOL      0.660962
     75 O13        -0.0420    6.8310   -0.3940 o         1 MOL     -0.521590
     76 H32         2.0550    7.8360   -2.7510 hn        1 MOL      0.321686
     77 H33         0.1740    5.7740   -3.4800 h1        1 MOL      0.105901
     78 H34        -0.1810    7.5000   -3.1970 h1        1 MOL      0.105901
     79 N8         -1.6940    5.7030   -1.4320 n         1 MOL     -0.666218
     80 C25        -2.3420    5.2120   -0.2480 c3        1 MOL      0.043389
     81 C26        -1.5370    4.1090    0.3310 c         1 MOL      0.921772
     82 O14        -1.0750    3.1760   -0.3250 o         1 MOL     -0.721686
     83 C27        -3.7940    4.7170   -0.4820 c3        1 MOL      0.244703
     84 C28        -4.5580    4.4030    0.7850 c3        1 MOL     -0.235575
     85 O15        -3.7690    3.4660   -1.1190 oh        1 MOL     -0.574708
     86 H35        -1.8600    5.1200   -2.2450 hn        1 MOL      0.308470
     87 H36        -2.4120    5.9530    0.5450 h1        1 MOL      0.056902
     88 H37        -4.3540    5.3520   -1.1700 h1        1 MOL      0.071535
     89 H38        -3.3730    3.4220   -1.9860 ho        1 MOL      0.362220
     90 H39        -4.5690    5.2850    1.4340 hc        1 MOL      0.054928
     91 H40        -5.6370    4.2890    0.6720 hc        1 MOL      0.054928
     92 H41        -4.1080    3.6140    1.3760 hc        1 MOL      0.054928
     93 N9         -1.5200    4.1010    1.7070 n         1 MOL     -0.544710
     94 C29        -0.8300    3.0960    2.6350 c3        1 MOL      0.018638
     95 C30        -1.2550    1.6770    2.2950 c         1 MOL      0.595731
     96 O16        -0.7200    1.0440    1.4040 o         1 MOL     -0.553461
     97 C31         0.6780    3.3090    2.6520 c3        1 MOL      0.198970
     98 C32         1.1090    4.7970    2.8650 c3        1 MOL     -0.261824
     99 C33         1.4620    2.3920    3.6270 c3        1 MOL     -0.518808
    100 C34         0.8280    5.4390    4.2370 c3        1 MOL     -0.313939
    101 H42        -1.9260    4.9380    2.0860 hn        1 MOL      0.293483
    102 H43        -1.0810    3.2680    3.6750 h1        1 MOL      0.043428
    103 H44         0.8940    3.0080    1.6240 hc        1 MOL     -0.111699
    104 H45         0.6240    5.4060    2.1120 hc        1 MOL      0.122103
    105 H46         2.1960    4.9520    2.8550 hc        1 MOL      0.122103
    106 H47         1.5890    1.4450    3.0970 hc        1 MOL      0.158751
    107 H48         2.4500    2.8200    3.7790 hc        1 MOL      0.158751
    108 H49         0.9410    2.2900    4.5730 hc        1 MOL      0.158751
    109 H50         1.0660    4.7390    5.0390 hc        1 MOL      0.090557
    110 H51         1.5020    6.2880    4.3340 hc        1 MOL      0.090557
    111 H52        -0.2170    5.7610    4.2810 hc        1 MOL      0.090557
    112 N10        -2.3690    1.2260    2.9520 n         1 MOL     -0.349664
    113 C35        -2.9130   -0.1540    2.8480 c3        1 MOL     -0.059265
    114 C36        -4.4470   -0.2950    2.8400 c         1 MOL      0.470976
    115 O17        -5.0660   -1.2710    3.2410 o         1 MOL     -0.544523
    116 C37        -2.2700   -1.1080    3.9700 c3        1 MOL      0.369904
    117 C38        -2.3800   -0.5170    5.3850 c3        1 MOL     -0.192056
    118 O18        -0.8620   -1.2420    3.8220 oh        1 MOL     -0.585984
    119 H53        -2.7570    1.8150    3.6780 hn        1 MOL      0.216965
    120 H54        -2.6000   -0.5560    1.8860 h1        1 MOL      0.077550
    121 H55        -2.6720   -2.1220    3.9380 h1        1 MOL      0.005736
    122 H56        -0.7500   -1.6000    2.9420 ho        1 MOL      0.360515
    123 H57        -2.1370   -1.1930    6.2070 hc        1 MOL      0.036985
    124 H58        -1.7530    0.3640    5.4690 hc        1 MOL      0.036985
    125 H59        -3.4220   -0.2170    5.5320 hc        1 MOL      0.036985
    126 N11        -5.0960    0.7550    2.3010 n         1 MOL     -0.241515
    127 C39        -6.5700    0.7080    2.1190 c3        1 MOL     -0.105055
    128 C40        -7.0220   -0.1740    0.8540 c         1 MOL      0.507644
    129 O19        -7.4330    0.3710   -0.2030 o         1 MOL     -0.502313
    130 C41        -7.1660    2.1300    2.0070 c3        1 MOL      0.561514
    131 C42        -8.6380    2.1420    2.1790 c3        1 MOL     -0.458482
    132 O20        -6.6520    2.9560    2.9840 oh        1 MOL     -0.650723
    133 H60        -4.6690    1.6410    2.0500 hn        1 MOL      0.187911
    134 H61        -7.0200    0.2680    3.0180 h1        1 MOL      0.050084
    135 H62        -6.9250    2.4750    0.9980 h1        1 MOL     -0.019144
    136 H63        -6.7610    2.5110    3.8300 ho        1 MOL      0.387120
    137 H64        -9.0240    1.5350    1.3640 hc        1 MOL      0.111950
    138 H65        -8.9220    1.7620    3.1540 hc        1 MOL      0.111950
    139 H66        -8.9230    3.1800    1.9720 hc        1 MOL      0.111950
    140 N12        -6.7930   -1.4740    0.9300 n         1 MOL     -0.666498
    141 C43        -6.6420   -2.4660   -0.1780 c3        1 MOL      0.427419
    142 C44        -5.4150   -2.1560   -1.0850 c         1 MOL      0.503539
    143 O21        -5.0160   -0.9860   -1.2780 o         1 MOL     -0.516664
    144 C45        -7.9230   -2.8290   -0.8830 c3        1 MOL     -0.600700
    145 C46        -9.1260   -2.9820    0.1250 c3        1 MOL      0.072611
    146 C47       -10.3700   -3.6680   -0.4460 c3        1 MOL      0.135315
    147 C48       -11.4280   -3.9250    0.5900 c3        1 MOL     -0.098780
    148 N13       -12.4210   -4.8030   -0.0040 n4        1 MOL      0.070121
    149 H67        -6.6630   -1.7660    1.8890 hn        1 MOL      0.338300
    150 H68        -6.3540   -3.4140    0.2860 h1        1 MOL      0.020547
    151 H69        -7.8590   -3.8320   -1.3270 hc        1 MOL      0.169272
    152 H70        -8.1120   -2.0810   -1.6590 hc        1 MOL      0.169272
    153 H71        -9.4140   -1.9830    0.4470 hc        1 MOL      0.033953
    154 H72        -8.6990   -3.4400    1.0180 hc        1 MOL      0.033953
    155 H73       -10.0190   -4.6110   -0.8550 hc        1 MOL     -0.002703
    156 H74       -10.9230   -3.0820   -1.1870 hc        1 MOL     -0.002703
    157 H75       -11.8710   -2.9520    0.7670 hx        1 MOL      0.066767
    158 H76       -10.9420   -4.3930    1.4470 hx        1 MOL      0.066767
    159 H77       -11.9950   -5.4390   -0.6620 hn        1 MOL      0.150797
    160 H78       -13.0700   -5.1580    0.6840 hn        1 MOL      0.150797
    161 H79       -12.9670   -4.1990   -0.6070 hn        1 MOL      0.150797
    162 N14        -4.6880   -3.2190   -1.4470 n         1 MOL     -0.482728
    163 C49        -3.3530   -3.1080   -2.1060 c3        1 MOL      0.067907
    164 C50        -2.2810   -2.5730   -1.0980 c         1 MOL      0.402360
    165 O22        -1.6790   -1.5350   -1.3950 o         1 MOL     -0.551923
    166 C51        -2.9230   -4.3040   -2.8480 c3        1 MOL      0.005482
    167 C52        -3.9080   -4.6470   -4.0030 c3        1 MOL     -0.239909
    168 C53        -3.6020   -6.0470   -4.5650 c         1 MOL      0.657813
    169 O23        -2.7300   -6.2640   -5.4480 o         1 MOL     -0.648018
    170 O24        -4.2930   -7.0030   -4.0460 o         1 MOL     -0.648018
    171 H80        -4.9100   -4.1870   -1.2380 hn        1 MOL      0.318214
    172 H81        -3.4330   -2.3810   -2.9200 h1        1 MOL      0.068822
    173 H82        -2.8460   -5.1470   -2.1590 hc        1 MOL      0.067678
    174 H83        -1.9710   -4.2060   -3.3620 hc        1 MOL      0.067678
    175 H84        -3.7410   -3.9200   -4.7950 hc        1 MOL      0.039819
    176 H85        -4.9510   -4.7270   -3.7020 hc        1 MOL      0.039819
    177 N15        -2.1520   -3.0430    0.1460 n         1 MOL     -0.212310
    178 C54        -2.5770   -4.3470    0.6380 c3        1 MOL     -0.098189
    179 H86        -2.1330   -4.5290    1.6160 h1        1 MOL      0.051790
    180 H87        -3.6640   -4.3680    0.7230 h1        1 MOL      0.051790
    181 H88        -2.2520   -5.1220   -0.0570 h1        1 MOL      0.051790
    182 H89        -1.5170   -2.5000    0.6990 hn        1 MOL      0.251094
    183 Ca1        -0.4980    0.8460   -1.3810 Ca        1 MOL      1.745660
    184 O25        -2.1170    0.6430   -3.3940 oh        1 MOL     -0.875297
    185 H90        -1.9380    1.1810   -4.1570 ho        1 MOL      0.422968
    186 H91        -2.9020    0.1430   -3.6240 ho        1 MOL      0.422968
    187 O26        -3.1330    0.7870   -0.6400 oh        1 MOL     -0.875297
    188 H92        -3.6470    0.0240   -0.8960 ho        1 MOL      0.422968
    189 H93        -3.7310    1.5180   -0.7380 ho        1 MOL      0.422968
    190 O27         0.9300   -0.2270   -3.3540 oh        1 MOL     -0.875297
    191 H94         0.4680   -0.9390   -3.7890 ho        1 MOL      0.422968
    192 H95         1.5670    0.0740   -4.0060 ho        1 MOL      0.422968
@<TRIPOS>BOND
     1    1    2 1   
     2    1    4 1   
     3    1    5 1   
     4    1    6 1   
     5    2    3 2   
     6    2    7 1   
     7    7    8 1   
     8    7   15 1   
     9    8    9 1   
    10    8   11 1   
    11    8   16 1   
    12    9   10 2   
    13    9   19 1   
    14   11   12 1   
    15   11   17 1   
    16   11   18 1   
    17   12   13 1   
    18   12   14 1   
    19   19   20 1   
    20   19   28 1   
    21   20   21 1   
    22   20   23 1   
    23   20   29 1   
    24   21   22 2   
    25   21   41 1   
    26   23   24 1   
    27   23   30 1   
    28   23   31 1   
    29   24   25 1   
    30   24   32 1   
    31   24   33 1   
    32   25   26 1   
    33   25   34 1   
    34   25   35 1   
    35   26   27 1   
    36   26   36 1   
    37   26   37 1   
    38   27   38 1   
    39   27   39 1   
    40   27   40 1   
    41   41   42 1   
    42   41   49 1   
    43   42   43 1   
    44   42   45 1   
    45   42   50 1   
    46   43   44 2   
    47   43   53 1   
    48   45   46 1   
    49   45   51 1   
    50   45   52 1   
    51   46   47 1   
    52   46   48 1   
    53   53   54 1   
    54   53   57 1   
    55   54   55 1   
    56   54   58 1   
    57   54   59 1   
    58   55   56 2   
    59   55   60 1   
    60   60   61 1   
    61   60   68 1   
    62   61   62 1   
    63   61   64 1   
    64   61   69 1   
    65   62   63 2   
    66   62   72 1   
    67   64   65 1   
    68   64   70 1   
    69   64   71 1   
    70   65   66 1   
    71   65   67 1   
    72   72   73 1   
    73   72   76 1   
    74   73   74 1   
    75   73   77 1   
    76   73   78 1   
    77   74   75 2   
    78   74   79 1   
    79   79   80 1   
    80   79   86 1   
    81   80   81 1   
    82   80   83 1   
    83   80   87 1   
    84   81   82 2   
    85   81   93 1   
    86   83   84 1   
    87   83   85 1   
    88   83   88 1   
    89   84   90 1   
    90   84   91 1   
    91   84   92 1   
    92   85   89 1   
    93   93   94 1   
    94   93  101 1   
    95   94   95 1   
    96   94   97 1   
    97   94  102 1   
    98   95   96 2   
    99   95  112 1   
   100   97   98 1   
   101   97   99 1   
   102   97  103 1   
   103   98  100 1   
   104   98  104 1   
   105   98  105 1   
   106   99  106 1   
   107   99  107 1   
   108   99  108 1   
   109  100  109 1   
   110  100  110 1   
   111  100  111 1   
   112  112  113 1   
   113  112  119 1   
   114  113  114 1   
   115  113  116 1   
   116  113  120 1   
   117  114  115 2   
   118  114  126 1   
   119  116  117 1   
   120  116  118 1   
   121  116  121 1   
   122  117  123 1   
   123  117  124 1   
   124  117  125 1   
   125  118  122 1   
   126  126  127 1   
   127  126  133 1   
   128  127  128 1   
   129  127  130 1   
   130  127  134 1   
   131  128  129 2   
   132  128  140 1   
   133  130  131 1   
   134  130  132 1   
   135  130  135 1   
   136  131  137 1   
   137  131  138 1   
   138  131  139 1   
   139  132  136 1   
   140  140  141 1   
   141  140  149 1   
   142  141  142 1   
   143  141  144 1   
   144  141  150 1   
   145  142  143 2   
   146  142  162 1   
   147  144  145 1   
   148  144  151 1   
   149  144  152 1   
   150  145  146 1   
   151  145  153 1   
   152  145  154 1   
   153  146  147 1   
   154  146  155 1   
   155  146  156 1   
   156  147  148 1   
   157  147  157 1   
   158  147  158 1   
   159  148  159 1   
   160  148  160 1   
   161  148  161 1   
   162  162  163 1   
   163  162  171 1   
   164  163  164 1   
   165  163  166 1   
   166  163  172 1   
   167  164  165 2   
   168  164  177 1   
   169  166  167 1   
   170  166  173 1   
   171  166  174 1   
   172  167  168 1   
   173  167  175 1   
   174  167  176 1   
   175  168  169 1   
   176  168  170 1   
   177  177  178 1   
   178  177  182 1   
   179  178  179 1   
   180  178  180 1   
   181  178  181 1   
   182  184  185 1   
   183  184  186 1   
   184  187  188 1   
   185  187  189 1   
   186  190  191 1   
   187  190  192 1   
@<TRIPOS>SUBSTRUCTURE
     1 MOL         1 TEMP              0 ****  ****    0 ROOT
