@<TRIPOS>MOLECULE
MOL
  194   186     1     0     0
SMALL
resp


@<TRIPOS>ATOM
      1 C1          1.3200    1.2530    2.8220 c3        1 MOL     -0.337889
      2 C2          2.6020    1.0360    1.9850 c         1 MOL      0.674842
      3 O1          2.8200    1.7820    0.9940 o         1 MOL     -0.558428
      4 H1          1.5880    1.3660    3.8730 hc        1 MOL      0.086813
      5 H2          0.8100    2.1530    2.4790 hc        1 MOL      0.086813
      6 H3          0.6600    0.3930    2.7060 hc        1 MOL      0.086813
      7 N1          3.3620   -0.0020    2.3610 n         1 MOL     -0.591345
      8 C3          4.6280   -0.4150    1.6770 c3        1 MOL      0.001316
      9 C4          4.9260   -1.9180    1.4650 c         1 MOL      0.438911
     10 O2          5.9560   -2.1510    0.8650 o         1 MOL     -0.460864
     11 C5          5.9300    0.2900    2.2860 c3        1 MOL     -0.000233
     12 C6          6.2420   -0.1070    3.7210 c         1 MOL      0.662404
     13 O3          5.6650   -1.0040    4.2670 o         1 MOL     -0.707570
     14 O4          7.0580    0.6160    4.3130 o         1 MOL     -0.707570
     15 H4          3.0550   -0.5270    3.1720 hn        1 MOL      0.321337
     16 H5          4.5650    0.0670    0.7000 h1        1 MOL      0.121264
     17 H6          5.8670    1.3750    2.1670 hc        1 MOL      0.040826
     18 H7          6.8800    0.0440    1.8120 hc        1 MOL      0.040826
     19 N2          4.0400   -2.8800    1.8490 n         1 MOL     -0.426493
     20 C7          4.1060   -4.3640    1.5460 c3        1 MOL      0.100879
     21 C8          4.4330   -4.6680    0.0780 c         1 MOL      0.447857
     22 O5          5.0050   -5.6690   -0.2350 o         1 MOL     -0.517215
     23 C9          4.9860   -5.0680    2.5370 c3        1 MOL     -0.082562
     24 C10         4.4880   -5.0360    4.0080 c3        1 MOL      0.075267
     25 C11         5.4460   -5.6080    5.0920 c3        1 MOL     -0.161755
     26 C12         6.7390   -4.8750    5.1870 c3        1 MOL      0.043052
     27 N3          6.6030   -3.5270    5.7930 n4        1 MOL     -0.250632
     28 H8          3.2150   -2.6030    2.3620 hn        1 MOL      0.262298
     29 H9          3.0580   -4.6780    1.5650 h1        1 MOL      0.080435
     30 H10         5.9970   -4.6810    2.5950 hc        1 MOL      0.055855
     31 H11         4.9980   -6.1300    2.2940 hc        1 MOL      0.055855
     32 H12         3.5850   -5.6450    4.0240 hc        1 MOL     -0.011881
     33 H13         4.2000   -4.0280    4.2960 hc        1 MOL     -0.011881
     34 H14         5.6450   -6.6750    4.9620 hc        1 MOL      0.078305
     35 H15         5.0010   -5.6080    6.0870 hc        1 MOL      0.078305
     36 H16         7.1280   -4.7270    4.1750 hx        1 MOL      0.070061
     37 H17         7.4720   -5.4330    5.7690 hx        1 MOL      0.070061
     38 H18         7.4780   -3.0110    5.8010 hn        1 MOL      0.284063
     39 H19         6.1420   -2.8490    5.2030 hn        1 MOL      0.284063
     40 H20         6.3390   -3.5940    6.7610 hn        1 MOL      0.284063
     41 N4          4.1420   -3.7400   -0.8020 n         1 MOL     -0.255678
     42 C13         4.6010   -3.5880   -2.1800 c3        1 MOL      0.042649
     43 C14         4.7260   -2.0820   -2.5710 c         1 MOL      0.537902
     44 O6          3.9620   -1.5280   -3.4000 o         1 MOL     -0.567259
     45 C15         3.6440   -4.3300   -3.0960 c3        1 MOL     -0.270880
     46 C16         2.1160   -4.2020   -2.8970 c         1 MOL      0.672841
     47 O7          1.4310   -5.2210   -2.8010 o         1 MOL     -0.689540
     48 O8          1.5280   -3.0810   -2.7390 o         1 MOL     -0.689540
     49 H21         3.7000   -2.9310   -0.3810 hn        1 MOL      0.162798
     50 H22         5.6190   -3.9410   -2.3570 h1        1 MOL      0.075669
     51 H23         3.7910   -5.4120   -3.0640 hc        1 MOL      0.079361
     52 H24         3.8860   -3.9910   -4.0980 hc        1 MOL      0.079361
     53 N5          5.6380   -1.4310   -1.9200 n         1 MOL     -0.343958
     54 C17         5.8540   -0.0070   -2.1070 c3        1 MOL     -0.041984
     55 C18         7.3240    0.3480   -1.8020 c         1 MOL      0.559383
     56 O9          8.0110   -0.5530   -1.4210 o         1 MOL     -0.508830
     57 H25         6.3110   -1.9320   -1.3650 hn        1 MOL      0.254269
     58 H26         5.1740    0.6230   -1.5220 h1        1 MOL      0.077550
     59 H27         5.7260    0.2410   -3.1520 h1        1 MOL      0.077550
     60 N6          7.7140    1.6530   -1.8190 n         1 MOL     -0.588150
     61 C19         6.8520    2.8060   -1.9200 c3        1 MOL      0.205854
     62 C20         6.3320    3.0620   -0.5040 c         1 MOL      0.508836
     63 O10         7.0590    3.0130    0.4660 o         1 MOL     -0.533370
     64 C21         7.6360    4.0290   -2.3690 c3        1 MOL     -0.250859
     65 C22         6.8890    5.3350   -2.4100 c         1 MOL      0.715277
     66 N7          7.3500    6.2450   -1.6170 n         1 MOL     -0.801822
     67 O11         6.0120    5.4570   -3.2530 o         1 MOL     -0.574993
     68 H28         8.6870    1.8270   -1.6090 hn        1 MOL      0.331616
     69 H29         6.0910    2.5730   -2.6610 h1        1 MOL      0.054509
     70 H30         8.0880    3.8980   -3.3450 hc        1 MOL      0.075334
     71 H31         8.4670    4.1660   -1.6740 hc        1 MOL      0.075334
     72 H32         8.1160    6.1220   -0.9640 hn        1 MOL      0.376390
     73 H33         6.9280    7.1620   -1.5700 hn        1 MOL      0.376390
     74 N8          5.0620    3.4380   -0.3190 n         1 MOL     -0.517664
     75 C23         3.9060    3.4990   -1.2750 c3        1 MOL     -0.151795
     76 C24         2.7950    4.3120   -0.6030 c         1 MOL      0.792968
     77 O12         3.1020    5.2660    0.1120 o         1 MOL     -0.570464
     78 H34         4.9240    3.6890    0.6540 hn        1 MOL      0.353050
     79 H35         3.5670    2.5130   -1.5750 h1        1 MOL      0.081138
     80 H36         4.2300    4.0010   -2.1890 h1        1 MOL      0.081138
     81 N9          1.5520    3.9080   -0.8230 n         1 MOL     -0.730318
     82 C25         0.4200    4.6910   -0.3320 c3        1 MOL      0.153072
     83 C26        -0.8120    3.8920    0.2150 c         1 MOL      0.785874
     84 O13        -0.9730    2.7330   -0.1060 o         1 MOL     -0.573824
     85 C27         0.0290    5.6150   -1.4990 c3        1 MOL     -0.287533
     86 C28        -0.9090    6.7480   -1.2470 ca        1 MOL      0.054460
     87 C29        -2.1460    6.9050   -1.8110 ca        1 MOL     -0.100995
     88 C30        -0.5400    7.5650   -0.1900 ca        1 MOL     -0.100995
     89 C31        -2.9460    8.0150   -1.4740 ca        1 MOL     -0.331051
     90 C32        -1.3350    8.6440    0.1910 ca        1 MOL     -0.331051
     91 C33        -2.5240    8.8550   -0.4720 ca        1 MOL      0.446218
     92 O14        -3.2720    9.8220   -0.0430 oh        1 MOL     -0.502190
     93 H37         1.4730    3.1330   -1.4500 hn        1 MOL      0.370668
     94 H38         0.8420    5.2810    0.4820 h1        1 MOL      0.051885
     95 H39        -0.3310    4.8670   -2.2060 hc        1 MOL      0.107634
     96 H40         0.9900    6.0270   -1.8030 hc        1 MOL      0.107634
     97 H41        -2.4320    6.2850   -2.6460 ha        1 MOL      0.131356
     98 H42         0.4010    7.3710    0.3100 ha        1 MOL      0.131356
     99 H43        -3.8650    8.1560   -2.0330 ha        1 MOL      0.159382
    100 H44        -1.0530    9.3670    0.9360 ha        1 MOL      0.159382
    101 H45        -3.0180   10.0520    0.8470 ho        1 MOL      0.356260
    102 N10        -1.6070    4.5080    1.0560 n         1 MOL     -0.609126
    103 C34        -2.8710    4.0530    1.6200 c3        1 MOL     -0.017093
    104 C35        -3.9940    3.7320    0.5740 c         1 MOL      0.525207
    105 O15        -4.0440    4.3780   -0.5000 o         1 MOL     -0.482670
    106 C36        -3.3660    5.1450    2.6520 c3        1 MOL      0.227067
    107 C37        -3.7330    6.4650    1.8920 c3        1 MOL      0.061798
    108 C38        -4.3930    4.6590    3.7420 c3        1 MOL     -0.390944
    109 C39        -3.9970    7.6850    2.8640 c3        1 MOL     -0.419066
    110 H46        -1.4420    5.5070    1.1480 hn        1 MOL      0.219531
    111 H47        -2.6370    3.1110    2.1310 h1        1 MOL      0.101826
    112 H48        -2.5220    5.3720    3.3050 hc        1 MOL      0.017211
    113 H49        -4.6420    6.2780    1.3020 hc        1 MOL      0.027732
    114 H50        -2.9330    6.6700    1.1890 hc        1 MOL      0.027732
    115 H51        -5.4160    4.6760    3.3580 hc        1 MOL      0.098783
    116 H52        -3.9780    3.7100    4.0850 hc        1 MOL      0.098783
    117 H53        -4.4900    5.3980    4.5360 hc        1 MOL      0.098783
    118 H54        -4.8090    7.4370    3.5370 hc        1 MOL      0.105567
    119 H55        -3.1230    7.8460    3.5060 hc        1 MOL      0.105567
    120 H56        -4.3130    8.5360    2.2620 hc        1 MOL      0.105567
    121 N11        -4.8790    2.7220    0.8430 n         1 MOL     -0.601472
    122 C40        -5.9270    2.2380   -0.1310 c3        1 MOL      0.279376
    123 C41        -5.3990    1.0620   -0.9490 c         1 MOL      0.649892
    124 O16        -4.6360    0.3060   -0.3890 o         1 MOL     -0.449594
    125 C42        -7.3670    2.0250    0.4190 c3        1 MOL     -0.092321
    126 O17        -7.2870    0.9190    1.2920 oh        1 MOL     -0.449131
    127 H57        -4.8740    2.2860    1.7580 hn        1 MOL      0.317975
    128 H58        -6.0620    2.9740   -0.9280 h1        1 MOL     -0.000378
    129 H59        -8.1690    1.8010   -0.2820 h1        1 MOL      0.068727
    130 H60        -7.5880    2.9750    0.9210 h1        1 MOL      0.068727
    131 H61        -8.1940    0.7700    1.5880 ho        1 MOL      0.406303
    132 N12        -5.7400    0.8590   -2.2250 n         1 MOL     -0.701889
    133 C43        -5.5670   -0.4430   -2.9820 c3        1 MOL      0.348821
    134 C44        -6.1760   -1.5860   -2.2300 c         1 MOL      0.392968
    135 O18        -5.5850   -2.6670   -2.0450 o         1 MOL     -0.464108
    136 C45        -4.1350   -0.5820   -3.3870 c3        1 MOL     -0.113135
    137 H62        -6.3300    1.5320   -2.6890 hn        1 MOL      0.309485
    138 H63        -6.0530   -0.3540   -3.9530 h1        1 MOL      0.015454
    139 H64        -4.0610   -1.4230   -4.0770 hc        1 MOL      0.029644
    140 H65        -3.7420    0.3140   -3.8710 hc        1 MOL      0.029644
    141 H66        -3.5010   -0.7290   -2.5090 hc        1 MOL      0.029644
    142 N13        -7.4740   -1.3670   -1.7760 n         1 MOL     -0.545153
    143 C46        -8.3270   -2.2830   -0.9580 c3        1 MOL      0.504153
    144 C47        -7.6000   -2.9600    0.2750 c         1 MOL      0.276792
    145 O19        -7.8300   -4.1270    0.5800 o         1 MOL     -0.479023
    146 C48        -9.0620   -3.2710   -1.8790 c3        1 MOL     -0.505946
    147 H67        -8.0020   -0.6010   -2.1450 hn        1 MOL      0.264426
    148 H68        -9.0550   -1.6590   -0.4500 h1        1 MOL     -0.044685
    149 H69        -9.4870   -2.6410   -2.6640 hc        1 MOL      0.133440
    150 H70        -8.4460   -4.1040   -2.2420 hc        1 MOL      0.133440
    151 H71        -9.8610   -3.7650   -1.3320 hc        1 MOL      0.133440
    152 N14        -6.6950   -2.2270    0.9370 n         1 MOL     -0.253328
    153 C49        -5.8240   -2.8240    2.0190 c3        1 MOL      0.034172
    154 C50        -6.2890   -2.6080    3.4780 c         1 MOL      0.390958
    155 O20        -6.1080   -3.4800    4.2870 o         1 MOL     -0.454627
    156 C51        -4.4600   -2.2940    1.7910 c3        1 MOL      0.320631
    157 C52        -3.3020   -3.0650    2.4250 c3        1 MOL     -0.347245
    158 C53        -3.2500   -4.5160    1.9340 c         1 MOL      0.628386
    159 O21        -2.9260   -5.4150    2.7530 o         1 MOL     -0.665703
    160 O22        -3.6760   -4.8070    0.7970 o         1 MOL     -0.665703
    161 H72        -6.5970   -1.2410    0.7140 hn        1 MOL      0.085424
    162 H73        -5.8770   -3.8930    1.8170 h1        1 MOL      0.175212
    163 H74        -4.4620   -1.2460    2.0910 hc        1 MOL     -0.114720
    164 H75        -4.2840   -2.1880    0.7210 hc        1 MOL     -0.114720
    165 H76        -3.5230   -3.1200    3.4940 hc        1 MOL      0.063920
    166 H77        -2.3100   -2.6240    2.3010 hc        1 MOL      0.063920
    167 N15        -6.9400   -1.4740    3.8170 n         1 MOL     -0.187203
    168 C54        -7.5500   -1.2730    5.1300 c3        1 MOL     -0.245031
    169 H78        -6.7840   -1.3500    5.9010 h1        1 MOL      0.104352
    170 H79        -8.0090   -0.2850    5.1710 h1        1 MOL      0.104352
    171 H80        -8.3120   -2.0350    5.2980 h1        1 MOL      0.104352
    172 H81        -7.1640   -0.8440    3.0600 hn        1 MOL      0.123718
    173 Ca1        -0.9030   -4.2340   -2.7320 Ca        1 MOL      1.734067
    174 O23        -1.0840   -6.4470   -4.3630 oh        1 MOL     -0.851562
    175 H82        -1.7880   -7.0890   -4.5050 ho        1 MOL      0.419579
    176 H83        -0.7380   -6.2890   -5.2400 ho        1 MOL      0.419579
    177 O24         0.2100   -3.5970   -5.3650 oh        1 MOL     -0.851562
    178 H84        -0.0470   -3.3790   -6.2590 ho        1 MOL      0.419579
    179 H85         0.8700   -2.9440   -5.1400 ho        1 MOL      0.419579
    180 O25        -1.7400   -6.3110   -1.1680 oh        1 MOL     -0.851562
    181 H86        -2.3900   -5.9030   -0.5910 ho        1 MOL      0.419579
    182 H87        -2.1710   -7.0970   -1.4970 ho        1 MOL      0.419579
    183 O26        -0.5670   -2.9740   -0.4220 oh        1 MOL     -0.851562
    184 H88        -1.1540   -2.2890   -0.1220 ho        1 MOL      0.419579
    185 H89        -0.1850   -3.3290    0.3750 ho        1 MOL      0.419579
    186 O27        -3.2700   -3.9570   -1.6520 oh        1 MOL     -0.851562
    187 H90        -3.9840   -3.3810   -1.9000 ho        1 MOL      0.419579
    188 H91        -3.3070   -4.0010   -0.6960 ho        1 MOL      0.419579
    189 O28        -2.9430   -4.1600   -4.6500 oh        1 MOL     -0.851562
    190 H92        -2.9610   -4.7410   -5.4060 ho        1 MOL      0.419579
    191 H93        -3.2270   -3.3090   -4.9870 ho        1 MOL      0.419579
    192 O29        -1.1120   -1.3910   -3.1230 oh        1 MOL     -0.851562
    193 H94        -1.4470   -0.9360   -2.3480 ho        1 MOL      0.419579
    194 H95        -0.3890   -0.8430   -3.4260 ho        1 MOL      0.419579
@<TRIPOS>BOND
     1    1    2 1   
     2    1    4 1   
     3    1    5 1   
     4    1    6 1   
     5    2    3 2   
     6    2    7 1   
     7    7    8 1   
     8    7   15 1   
     9    8    9 1   
    10    8   11 1   
    11    8   16 1   
    12    9   10 2   
    13    9   19 1   
    14   11   12 1   
    15   11   17 1   
    16   11   18 1   
    17   12   13 1   
    18   12   14 1   
    19   19   20 1   
    20   19   28 1   
    21   20   21 1   
    22   20   23 1   
    23   20   29 1   
    24   21   22 2   
    25   21   41 1   
    26   23   24 1   
    27   23   30 1   
    28   23   31 1   
    29   24   25 1   
    30   24   32 1   
    31   24   33 1   
    32   25   26 1   
    33   25   34 1   
    34   25   35 1   
    35   26   27 1   
    36   26   36 1   
    37   26   37 1   
    38   27   38 1   
    39   27   39 1   
    40   27   40 1   
    41   41   42 1   
    42   41   49 1   
    43   42   43 1   
    44   42   45 1   
    45   42   50 1   
    46   43   44 2   
    47   43   53 1   
    48   45   46 1   
    49   45   51 1   
    50   45   52 1   
    51   46   47 1   
    52   46   48 1   
    53   53   54 1   
    54   53   57 1   
    55   54   55 1   
    56   54   58 1   
    57   54   59 1   
    58   55   56 2   
    59   55   60 1   
    60   60   61 1   
    61   60   68 1   
    62   61   62 1   
    63   61   64 1   
    64   61   69 1   
    65   62   63 2   
    66   62   74 1   
    67   64   65 1   
    68   64   70 1   
    69   64   71 1   
    70   65   66 1   
    71   65   67 2   
    72   66   72 1   
    73   66   73 1   
    74   74   75 1   
    75   74   78 1   
    76   75   76 1   
    77   75   79 1   
    78   75   80 1   
    79   76   77 2   
    80   76   81 1   
    81   81   82 1   
    82   81   93 1   
    83   82   83 1   
    84   82   85 1   
    85   82   94 1   
    86   83   84 2   
    87   83  102 1   
    88   85   86 1   
    89   85   95 1   
    90   85   96 1   
    91   86   87 ar  
    92   86   88 ar  
    93   87   89 ar  
    94   87   97 1   
    95   88   90 ar  
    96   88   98 1   
    97   89   91 ar  
    98   89   99 1   
    99   90   91 ar  
   100   90  100 1   
   101   91   92 1   
   102   92  101 1   
   103  102  103 1   
   104  102  110 1   
   105  103  104 1   
   106  103  106 1   
   107  103  111 1   
   108  104  105 2   
   109  104  121 1   
   110  106  107 1   
   111  106  108 1   
   112  106  112 1   
   113  107  109 1   
   114  107  113 1   
   115  107  114 1   
   116  108  115 1   
   117  108  116 1   
   118  108  117 1   
   119  109  118 1   
   120  109  119 1   
   121  109  120 1   
   122  121  122 1   
   123  121  127 1   
   124  122  123 1   
   125  122  125 1   
   126  122  128 1   
   127  123  124 2   
   128  123  132 1   
   129  125  126 1   
   130  125  129 1   
   131  125  130 1   
   132  126  131 1   
   133  132  133 1   
   134  132  137 1   
   135  133  134 1   
   136  133  136 1   
   137  133  138 1   
   138  134  135 2   
   139  134  142 1   
   140  136  139 1   
   141  136  140 1   
   142  136  141 1   
   143  142  143 1   
   144  142  147 1   
   145  143  144 1   
   146  143  146 1   
   147  143  148 1   
   148  144  145 2   
   149  144  152 1   
   150  146  149 1   
   151  146  150 1   
   152  146  151 1   
   153  152  153 1   
   154  152  161 1   
   155  153  154 1   
   156  153  156 1   
   157  153  162 1   
   158  154  155 2   
   159  154  167 1   
   160  156  157 1   
   161  156  163 1   
   162  156  164 1   
   163  157  158 1   
   164  157  165 1   
   165  157  166 1   
   166  158  159 1   
   167  158  160 1   
   168  167  168 1   
   169  167  172 1   
   170  168  169 1   
   171  168  170 1   
   172  168  171 1   
   173  174  175 1   
   174  174  176 1   
   175  177  178 1   
   176  177  179 1   
   177  180  181 1   
   178  180  182 1   
   179  183  184 1   
   180  183  185 1   
   181  186  187 1   
   182  186  188 1   
   183  189  190 1   
   184  189  191 1   
   185  192  193 1   
   186  192  194 1   
@<TRIPOS>SUBSTRUCTURE
     1 MOL         1 TEMP              0 ****  ****    0 ROOT
