@<TRIPOS>MOLECULE
MOL
  195   189     1     0     0
SMALL
resp


@<TRIPOS>ATOM
      1 C1          6.4370    2.1060    5.4040 c3        1 MOL     -0.354990
      2 C2          5.7730    1.8120    4.0460 c         1 MOL      0.780993
      3 O1          5.4020    2.7870    3.3270 o         1 MOL     -0.614929
      4 H1          6.8370    1.1810    5.8190 hc        1 MOL      0.096864
      5 H2          7.2480    2.8220    5.2640 hc        1 MOL      0.096864
      6 H3          5.6980    2.5220    6.0880 hc        1 MOL      0.096864
      7 N1          5.5540    0.5500    3.6580 n         1 MOL     -0.728974
      8 C3          5.0800    0.0220    2.2980 c3        1 MOL      0.834374
      9 C4          3.5870    0.1900    1.9590 c         1 MOL     -0.297189
     10 O2          3.1280   -0.3560    0.9220 o         1 MOL     -0.156193
     11 C5          5.4800   -1.4770    2.0660 c3        1 MOL     -0.156889
     12 C6          6.9890   -1.7370    2.2510 c         1 MOL      0.575882
     13 O3          7.5620   -1.5420    3.3600 o         1 MOL     -0.625328
     14 O4          7.6150   -2.1550    1.2600 o         1 MOL     -0.625328
     15 H4          5.9740   -0.1350    4.2650 hn        1 MOL      0.269553
     16 H5          5.5880    0.6170    1.5350 h1        1 MOL     -0.049158
     17 H6          5.2100   -1.7910    1.0600 hc        1 MOL     -0.067247
     18 H7          4.9020   -2.0570    2.7920 hc        1 MOL     -0.067247
     19 N2          2.7740    0.7990    2.8780 n         1 MOL     -0.187025
     20 C7          1.3010    0.8720    2.7330 c3        1 MOL      0.246783
     21 C8          0.6910    2.2080    2.2510 c         1 MOL      0.520334
     22 O5          0.9550    3.2480    2.8970 o         1 MOL     -0.553839
     23 C9          0.6390    0.4000    4.0150 c3        1 MOL     -0.456812
     24 C10         0.8410   -1.0970    4.1900 c3        1 MOL      0.084826
     25 C11         0.4080   -1.8100    5.6060 c3        1 MOL     -0.051394
     26 C12         0.3160   -3.3090    5.4350 c3        1 MOL     -0.080770
     27 N3          1.5500   -3.8480    4.9160 n4        1 MOL     -0.296195
     28 H8          3.1690    1.2830    3.6720 hn        1 MOL      0.233842
     29 H9          1.1250    0.2080    1.8910 h1        1 MOL     -0.006637
     30 H10        -0.4200    0.6400    3.8700 hc        1 MOL      0.150896
     31 H11         1.0810    0.9600    4.8440 hc        1 MOL      0.150896
     32 H12         1.9040   -1.3140    4.0560 hc        1 MOL      0.037303
     33 H13         0.1940   -1.5770    3.4690 hc        1 MOL      0.037303
     34 H14        -0.5940   -1.4500    5.8700 hc        1 MOL      0.051742
     35 H15         1.1450   -1.5700    6.3740 hc        1 MOL      0.051742
     36 H16        -0.5210   -3.6110    4.8140 hx        1 MOL      0.114686
     37 H17         0.1340   -3.6740    6.4460 hx        1 MOL      0.114686
     38 H18         1.6860   -3.6170    3.9380 hn        1 MOL      0.304768
     39 H19         2.2850   -3.5100    5.5180 hn        1 MOL      0.304768
     40 H20         1.6730   -4.8530    4.9150 hn        1 MOL      0.304768
     41 N4         -0.2980    2.2780    1.3430 n         1 MOL     -0.196825
     42 C13        -0.9570    1.1370    0.6350 c3        1 MOL     -0.510178
     43 C14        -1.4760   -0.0900    1.3310 c         1 MOL      0.694837
     44 O6         -0.8960   -1.1220    1.0650 o         1 MOL     -0.595615
     45 C15        -0.2420    0.8940   -0.7190 c3        1 MOL     -0.993011
     46 C16        -0.0470    2.0960   -1.6900 c         1 MOL      0.652417
     47 O7         -0.7470    3.1300   -1.4980 o         1 MOL     -0.608537
     48 O8          0.6510    1.8620   -2.7250 o         1 MOL     -0.608537
     49 H21        -0.6270    3.2240    1.1960 hn        1 MOL      0.172497
     50 H22        -1.8630    1.6260    0.2770 h1        1 MOL      0.173782
     51 H23        -0.8310    0.1300   -1.2340 hc        1 MOL      0.389338
     52 H24         0.7270    0.4170   -0.5610 hc        1 MOL      0.389338
     53 N5         -2.4650   -0.0120    2.2040 n         1 MOL     -0.439461
     54 C17        -3.2110    1.1900    2.3790 c3        1 MOL      0.054750
     55 C18        -4.2510    1.1600    3.5530 c         1 MOL      0.563496
     56 O9         -4.1030    0.3920    4.4470 o         1 MOL     -0.565647
     57 H25        -2.9260   -0.8280    2.5640 hn        1 MOL      0.320198
     58 H26        -3.8140    1.3560    1.4910 h1        1 MOL      0.082837
     59 H27        -2.5410    2.0270    2.5910 h1        1 MOL      0.082837
     60 N6         -5.2480    1.9600    3.5840 n         1 MOL     -0.507689
     61 C19        -5.5770    3.0220    2.5730 c3        1 MOL      0.168373
     62 C20        -6.3720    2.4090    1.4350 c         1 MOL      0.292346
     63 O10        -7.1580    1.4980    1.7610 o         1 MOL     -0.378289
     64 C21        -6.3500    4.2090    3.2030 c3        1 MOL     -0.165847
     65 C22        -7.7270    3.8700    3.7530 c         1 MOL      0.715784
     66 O11        -8.7120    4.2420    3.0930 o         1 MOL     -0.664471
     67 O12        -7.8650    3.1840    4.8100 o         1 MOL     -0.664471
     68 H28        -5.9120    1.7470    4.3150 hn        1 MOL      0.331461
     69 H29        -4.6350    3.3970    2.1520 h1        1 MOL     -0.052201
     70 H30        -6.4040    5.0330    2.4840 hc        1 MOL      0.015741
     71 H31        -5.8020    4.6050    4.0510 hc        1 MOL      0.015741
     72 N7         -6.4420    3.0860    0.2960 n         1 MOL     -0.074139
     73 C23        -7.2980    2.7340   -0.8470 c3        1 MOL     -0.497009
     74 C24        -6.8960    1.3360   -1.4360 c         1 MOL      0.526933
     75 O13        -7.7260    0.6440   -2.0560 o         1 MOL     -0.544130
     76 H32        -5.9470    3.9540    0.1600 hn        1 MOL      0.187452
     77 H33        -7.1480    3.3360   -1.7390 h1        1 MOL      0.219407
     78 H34        -8.3190    2.6030   -0.5080 h1        1 MOL      0.219407
     79 N8         -5.6300    0.9670   -1.3880 n         1 MOL     -0.237743
     80 C25        -5.0940   -0.3140   -1.9220 c3        1 MOL      0.063045
     81 C26        -5.1990   -1.4870   -0.9950 c         1 MOL      0.682413
     82 O14        -5.0750   -1.3660    0.2040 o         1 MOL     -0.539860
     83 C27        -3.7140   -0.0830   -2.4190 c3        1 MOL      0.002817
     84 C28        -3.7010    0.7920   -3.6680 c3        1 MOL     -0.166379
     85 O15        -3.1730   -1.3460   -2.7700 oh        1 MOL     -0.542763
     86 H35        -5.0550    1.5730   -0.8090 hn        1 MOL      0.048848
     87 H36        -5.6750   -0.6690   -2.7750 h1        1 MOL      0.078472
     88 H37        -3.0760    0.3570   -1.6660 h1        1 MOL      0.227764
     89 H38        -2.2520   -1.2330   -3.0310 ho        1 MOL      0.389537
     90 H39        -4.0990    1.7700   -3.3860 hc        1 MOL      0.059298
     91 H40        -2.7520    0.8290   -4.2130 hc        1 MOL      0.059298
     92 H41        -4.4430    0.3960   -4.3560 hc        1 MOL      0.059298
     93 N9         -5.4780   -2.6360   -1.6520 n         1 MOL     -0.708457
     94 C29        -5.4740   -3.9070   -0.9760 c3        1 MOL      0.213146
     95 C30        -4.0860   -4.5630   -0.8550 c         1 MOL      0.492904
     96 O16        -3.9340   -5.5610   -0.2170 o         1 MOL     -0.537588
     97 C31        -6.5570   -4.7510   -1.6650 c3        1 MOL      0.101968
     98 C32        -6.7720   -6.2300   -1.1300 c3        1 MOL     -0.172330
     99 C33        -6.3880   -4.8200   -3.1890 c3        1 MOL     -0.146619
    100 C34        -7.0540   -6.5590    0.3800 c3        1 MOL     -0.172946
    101 H42        -5.3390   -2.6900   -2.6450 hn        1 MOL      0.365740
    102 H43        -5.6600   -3.7480    0.0920 h1        1 MOL      0.090398
    103 H44        -7.4950   -4.2350   -1.4280 hc        1 MOL      0.028374
    104 H45        -6.0250   -6.8760   -1.5850 hc        1 MOL      0.071883
    105 H46        -7.6970   -6.6760   -1.5190 hc        1 MOL      0.071883
    106 H47        -6.5000   -3.8740   -3.7290 hc        1 MOL      0.029632
    107 H48        -5.4140   -5.2660   -3.3670 hc        1 MOL      0.029632
    108 H49        -7.1940   -5.4950   -3.4970 hc        1 MOL      0.029632
    109 H50        -8.0160   -6.2410    0.7770 hc        1 MOL      0.049209
    110 H51        -7.0390   -7.6420    0.4980 hc        1 MOL      0.049209
    111 H52        -6.3280   -5.9880    0.9660 hc        1 MOL      0.049209
    112 N10        -3.0270   -4.0420   -1.5220 n         1 MOL     -0.385924
    113 C35        -1.6310   -4.5930   -1.4960 c3        1 MOL      0.000033
    114 C36        -0.5190   -3.5690   -1.2440 c         1 MOL      0.702682
    115 O17        -0.4880   -2.4730   -1.7670 o         1 MOL     -0.560051
    116 C37        -1.3140   -5.4400   -2.6800 c3        1 MOL      0.443067
    117 C38        -2.4180   -6.2730   -3.3210 c3        1 MOL     -0.333281
    118 O18        -0.1800   -6.2880   -2.4540 oh        1 MOL     -0.656830
    119 H53        -3.1910   -3.2390   -2.1140 hn        1 MOL      0.161039
    120 H54        -1.6060   -5.2780   -0.6490 h1        1 MOL      0.029402
    121 H55        -1.0110   -4.7420   -3.4580 h1        1 MOL      0.021341
    122 H56        -0.4980   -7.1380   -2.1380 ho        1 MOL      0.384908
    123 H57        -2.0330   -6.6890   -4.2530 hc        1 MOL      0.078824
    124 H58        -2.7180   -7.0190   -2.5950 hc        1 MOL      0.078824
    125 H59        -3.2530   -5.6140   -3.5650 hc        1 MOL      0.078824
    126 N11         0.5170   -3.9900   -0.4570 n         1 MOL     -0.575094
    127 C39         1.7780   -3.1710   -0.1810 c3        1 MOL      0.034226
    128 C40         2.5950   -3.0710   -1.4100 c         1 MOL      0.548343
    129 O19         2.5880   -3.9140   -2.3380 o         1 MOL     -0.527755
    130 C41         2.5200   -3.6820    1.0560 c3        1 MOL      0.159978
    131 C42         3.5450   -4.7850    0.6720 c3        1 MOL     -0.216533
    132 O20         1.7330   -4.2090    2.1270 oh        1 MOL     -0.667637
    133 H60         0.3980   -4.8820    0.0030 hn        1 MOL      0.256150
    134 H61         1.4000   -2.1860    0.0930 h1        1 MOL      0.168405
    135 H62         3.0980   -2.8750    1.5030 h1        1 MOL      0.201121
    136 H63         1.2920   -4.9320    1.6820 ho        1 MOL      0.440533
    137 H64         4.1790   -4.3200   -0.0840 hc        1 MOL      0.048659
    138 H65         4.0770   -5.1550    1.5490 hc        1 MOL      0.048659
    139 H66         3.0600   -5.6100    0.1430 hc        1 MOL      0.048659
    140 N12         3.2900   -1.9340   -1.5740 n         1 MOL     -0.258647
    141 C43         3.9950   -1.3270   -2.8110 c3        1 MOL     -0.068367
    142 C44         4.2200    0.1570   -2.7850 c         1 MOL      0.678221
    143 O21         4.5120    0.7550   -3.7870 o         1 MOL     -0.607164
    144 C45         5.2270   -2.1480   -3.0830 c3        1 MOL     -0.170933
    145 C46         6.1780   -2.3790   -1.9180 c3        1 MOL      0.031250
    146 C47         7.3640   -3.2150   -2.3950 c3        1 MOL     -0.195337
    147 C48         8.2920   -3.6110   -1.2360 c3        1 MOL     -0.073791
    148 N13         7.4890   -4.3930   -0.2980 n4        1 MOL     -0.427352
    149 H67         3.2020   -1.4000   -0.7180 hn        1 MOL     -0.054331
    150 H68         3.4020   -1.6140   -3.6840 h1        1 MOL      0.125591
    151 H69         5.7090   -1.6240   -3.9040 hc        1 MOL      0.070148
    152 H70         4.9960   -3.1340   -3.4770 hc        1 MOL      0.070148
    153 H71         5.6670   -2.7200   -1.0220 hc        1 MOL      0.073780
    154 H72         6.4990   -1.3750   -1.6020 hc        1 MOL      0.073780
    155 H73         7.9610   -2.6230   -3.0860 hc        1 MOL      0.084903
    156 H74         7.0410   -4.0980   -2.9360 hc        1 MOL      0.084903
    157 H75         8.6140   -2.6960   -0.7340 hx        1 MOL      0.129527
    158 H76         9.1160   -4.2750   -1.4750 hx        1 MOL      0.129527
    159 H77         6.9820   -3.7980    0.3450 hn        1 MOL      0.322670
    160 H78         6.9260   -5.0560   -0.8080 hn        1 MOL      0.322670
    161 H79         8.1140   -4.9370    0.2790 hn        1 MOL      0.322670
    162 N14         3.9930    0.7720   -1.6120 n         1 MOL     -0.349175
    163 C49         4.2310    2.1660   -1.4910 c3        1 MOL     -0.200644
    164 C50         5.7380    2.4780   -1.4180 c         1 MOL      0.386671
    165 O22         6.3950    1.9730   -0.5240 o         1 MOL     -0.469895
    166 C51         3.4450    2.6950   -0.2370 c3        1 MOL      0.416155
    167 C52         3.4760    4.2330   -0.0850 c3        1 MOL     -0.618956
    168 C53         3.1720    5.0350   -1.3620 c         1 MOL      0.591431
    169 O23         1.9470    5.2580   -1.6860 o         1 MOL     -0.681206
    170 O24         4.0950    5.5000   -2.0330 o         1 MOL     -0.681206
    171 H80         3.7630    0.2300   -0.7980 hn        1 MOL      0.231323
    172 H81         3.8660    2.6170   -2.4090 h1        1 MOL      0.222485
    173 H82         3.7870    2.2820    0.7120 hc        1 MOL     -0.038451
    174 H83         2.4200    2.3190   -0.2300 hc        1 MOL     -0.038451
    175 H84         4.5140    4.4180    0.2040 hc        1 MOL      0.194843
    176 H85         2.9620    4.6570    0.7800 hc        1 MOL      0.194843
    177 N15         6.2730    3.3990   -2.2760 n         1 MOL     -0.220282
    178 C54         7.7130    3.6700   -2.3000 c3        1 MOL     -0.220519
    179 H86         7.9210    4.4610   -3.0210 h1        1 MOL      0.098916
    180 H87         8.0390    3.9880   -1.3090 h1        1 MOL      0.098916
    181 H88         8.2490    2.7660   -2.5880 h1        1 MOL      0.098916
    182 H89         5.7020    3.8950   -2.9320 hn        1 MOL      0.315153
    183 Ca1        -0.5080    5.6200   -1.8870 Ca        1 MOL      1.594290
    184 O25         0.1100    4.3200   -4.2790 oh        1 MOL     -0.795644
    185 H90        -0.4240    3.6830   -4.7550 ho        1 MOL      0.397069
    186 H91         0.9970    3.9640   -4.3040 ho        1 MOL      0.397069
    187 O26        -2.7370    5.1600   -3.2480 oh        1 MOL     -0.795644
    188 H92        -3.5040    5.6340   -2.9470 ho        1 MOL      0.397069
    189 H93        -3.0780    4.4990   -3.8380 ho        1 MOL      0.397069
    190 O27         1.6800    7.0620   -3.5130 oh        1 MOL     -0.795644
    191 H94         2.1260    6.3080   -3.1190 ho        1 MOL      0.397069
    192 H95         1.8480    7.7890   -2.9040 ho        1 MOL      0.397069
    193 O28        -1.3080    7.7600   -3.3090 oh        1 MOL     -0.795644
    194 H96        -2.0550    7.9210   -3.8880 ho        1 MOL      0.397069
    195 H97        -0.9990    8.6340   -3.0740 ho        1 MOL      0.397069
@<TRIPOS>BOND
     1    1    2 1   
     2    1    4 1   
     3    1    5 1   
     4    1    6 1   
     5    2    3 2   
     6    2    7 1   
     7    7    8 1   
     8    7   15 1   
     9    8    9 1   
    10    8   11 1   
    11    8   16 1   
    12    9   10 2   
    13    9   19 1   
    14   11   12 1   
    15   11   17 1   
    16   11   18 1   
    17   12   13 1   
    18   12   14 1   
    19   19   20 1   
    20   19   28 1   
    21   20   21 1   
    22   20   23 1   
    23   20   29 1   
    24   21   22 2   
    25   21   41 1   
    26   23   24 1   
    27   23   30 1   
    28   23   31 1   
    29   24   25 1   
    30   24   32 1   
    31   24   33 1   
    32   25   26 1   
    33   25   34 1   
    34   25   35 1   
    35   26   27 1   
    36   26   36 1   
    37   26   37 1   
    38   27   38 1   
    39   27   39 1   
    40   27   40 1   
    41   41   42 1   
    42   41   49 1   
    43   42   43 1   
    44   42   45 1   
    45   42   50 1   
    46   43   44 2   
    47   43   53 1   
    48   45   46 1   
    49   45   51 1   
    50   45   52 1   
    51   46   47 1   
    52   46   48 1   
    53   53   54 1   
    54   53   57 1   
    55   54   55 1   
    56   54   58 1   
    57   54   59 1   
    58   55   56 2   
    59   55   60 1   
    60   60   61 1   
    61   60   68 1   
    62   61   62 1   
    63   61   64 1   
    64   61   69 1   
    65   62   63 2   
    66   62   72 1   
    67   64   65 1   
    68   64   70 1   
    69   64   71 1   
    70   65   66 1   
    71   65   67 1   
    72   72   73 1   
    73   72   76 1   
    74   73   74 1   
    75   73   77 1   
    76   73   78 1   
    77   74   75 2   
    78   74   79 1   
    79   79   80 1   
    80   79   86 1   
    81   80   81 1   
    82   80   83 1   
    83   80   87 1   
    84   81   82 2   
    85   81   93 1   
    86   83   84 1   
    87   83   85 1   
    88   83   88 1   
    89   84   90 1   
    90   84   91 1   
    91   84   92 1   
    92   85   89 1   
    93   93   94 1   
    94   93  101 1   
    95   94   95 1   
    96   94   97 1   
    97   94  102 1   
    98   95   96 2   
    99   95  112 1   
   100   97   98 1   
   101   97   99 1   
   102   97  103 1   
   103   98  100 1   
   104   98  104 1   
   105   98  105 1   
   106   99  106 1   
   107   99  107 1   
   108   99  108 1   
   109  100  109 1   
   110  100  110 1   
   111  100  111 1   
   112  112  113 1   
   113  112  119 1   
   114  113  114 1   
   115  113  116 1   
   116  113  120 1   
   117  114  115 2   
   118  114  126 1   
   119  116  117 1   
   120  116  118 1   
   121  116  121 1   
   122  117  123 1   
   123  117  124 1   
   124  117  125 1   
   125  118  122 1   
   126  126  127 1   
   127  126  133 1   
   128  127  128 1   
   129  127  130 1   
   130  127  134 1   
   131  128  129 2   
   132  128  140 1   
   133  130  131 1   
   134  130  132 1   
   135  130  135 1   
   136  131  137 1   
   137  131  138 1   
   138  131  139 1   
   139  132  136 1   
   140  140  141 1   
   141  140  149 1   
   142  141  142 1   
   143  141  144 1   
   144  141  150 1   
   145  142  143 2   
   146  142  162 1   
   147  144  145 1   
   148  144  151 1   
   149  144  152 1   
   150  145  146 1   
   151  145  153 1   
   152  145  154 1   
   153  146  147 1   
   154  146  155 1   
   155  146  156 1   
   156  147  148 1   
   157  147  157 1   
   158  147  158 1   
   159  148  159 1   
   160  148  160 1   
   161  148  161 1   
   162  162  163 1   
   163  162  171 1   
   164  163  164 1   
   165  163  166 1   
   166  163  172 1   
   167  164  165 2   
   168  164  177 1   
   169  166  167 1   
   170  166  173 1   
   171  166  174 1   
   172  167  168 1   
   173  167  175 1   
   174  167  176 1   
   175  168  169 1   
   176  168  170 1   
   177  177  178 1   
   178  177  182 1   
   179  178  179 1   
   180  178  180 1   
   181  178  181 1   
   182  184  185 1   
   183  184  186 1   
   184  187  188 1   
   185  187  189 1   
   186  190  191 1   
   187  190  192 1   
   188  193  194 1   
   189  193  195 1   
@<TRIPOS>SUBSTRUCTURE
     1 MOL         1 TEMP              0 ****  ****    0 ROOT
