@<TRIPOS>MOLECULE
MOL
  198   191     1     0     0
SMALL
resp


@<TRIPOS>ATOM
      1 C1         -9.5010    6.3960    2.6110 c3        1 MOL     -0.430749
      2 C2         -9.3070    5.1980    1.7140 c         1 MOL      0.700071
      3 O1         -9.3000    4.0340    2.1710 o         1 MOL     -0.575630
      4 H1        -10.0600    7.1630    2.0750 hc        1 MOL      0.110287
      5 H2        -10.0550    6.0990    3.5010 hc        1 MOL      0.110287
      6 H3         -8.5290    6.7930    2.9030 hc        1 MOL      0.110287
      7 N1         -8.9880    5.3570    0.4530 n         1 MOL     -0.540436
      8 C3         -8.7530    4.2740   -0.5250 c3        1 MOL     -0.069935
      9 C4         -7.5150    4.6120   -1.3430 c         1 MOL      0.651495
     10 O2         -7.6100    5.4190   -2.2770 o         1 MOL     -0.496512
     11 C5        -10.0450    4.1660   -1.3560 c3        1 MOL     -0.103424
     12 C6        -10.1480    2.9430   -2.3180 c         1 MOL      0.614224
     13 O3        -10.0590    3.1230   -3.5730 o         1 MOL     -0.576264
     14 O4        -10.4020    1.8180   -1.8210 o         1 MOL     -0.576264
     15 H4         -8.8070    6.2760    0.0650 hn        1 MOL      0.287137
     16 H5         -8.7020    3.3050   -0.0470 h1        1 MOL      0.106558
     17 H6        -10.2380    5.1290   -1.8280 hc        1 MOL      0.040663
     18 H7        -10.8770    4.0490   -0.6590 hc        1 MOL      0.040663
     19 N2         -6.3330    4.1010   -0.9230 n         1 MOL     -0.487420
     20 C7         -5.0320    4.2620   -1.6570 c3        1 MOL     -0.017152
     21 C8         -4.9680    3.2540   -2.8010 c         1 MOL      0.620242
     22 O5         -4.7030    3.6790   -3.9260 o         1 MOL     -0.568185
     23 C9         -3.8070    4.3260   -0.6240 c3        1 MOL     -0.128512
     24 C10        -3.8800    5.1610    0.7330 c3        1 MOL     -0.056606
     25 C11        -3.9860    6.6930    0.3600 c3        1 MOL     -0.032410
     26 C12        -4.3310    7.5440    1.5620 c3        1 MOL      0.088565
     27 N3         -3.8970    8.9850    1.3200 n4        1 MOL     -0.216261
     28 H8         -6.3580    3.4750   -0.1310 hn        1 MOL      0.268396
     29 H9         -5.0820    5.2040   -2.1900 h1        1 MOL      0.072561
     30 H10        -2.9320    4.6290   -1.2070 hc        1 MOL      0.054837
     31 H11        -3.4980    3.3160   -0.3590 hc        1 MOL      0.054837
     32 H12        -3.0240    4.9140    1.3470 hc        1 MOL      0.061677
     33 H13        -4.7800    4.7230    1.1640 hc        1 MOL      0.061677
     34 H14        -4.7400    6.7750   -0.4230 hc        1 MOL      0.042046
     35 H15        -3.0140    7.0030   -0.0100 hc        1 MOL      0.042046
     36 H16        -3.8300    7.0700    2.4050 hx        1 MOL      0.040220
     37 H17        -5.4090    7.4410    1.6490 hx        1 MOL      0.040220
     38 H18        -2.8840    9.0000    1.3430 hn        1 MOL      0.255677
     39 H19        -4.1400    9.3230    0.4090 hn        1 MOL      0.255677
     40 H20        -4.2590    9.5870    2.0450 hn        1 MOL      0.255677
     41 N4         -5.3390    2.0110   -2.6740 n         1 MOL     -0.404376
     42 C13        -5.3030    1.1690   -1.4090 c3        1 MOL     -0.139416
     43 C14        -6.5840    0.3630   -1.1820 c         1 MOL      0.628093
     44 O6         -7.4270    0.1330   -2.0780 o         1 MOL     -0.484401
     45 C15        -4.0630    0.3220   -1.3710 c3        1 MOL      0.028250
     46 C16        -3.8330   -0.5230   -0.1270 c         1 MOL      0.399026
     47 O7         -3.8610    0.0510    1.0030 o         1 MOL     -0.625356
     48 O8         -3.6730   -1.7760   -0.3020 o         1 MOL     -0.625356
     49 H21        -5.0820    1.4490   -3.4610 hn        1 MOL      0.294801
     50 H22        -5.1250    1.8680   -0.5920 h1        1 MOL      0.065178
     51 H23        -3.1880    0.8660   -1.7200 hc        1 MOL      0.005527
     52 H24        -4.2700   -0.3770   -2.1770 hc        1 MOL      0.005527
     53 N5         -6.8660   -0.0380    0.0490 n         1 MOL     -0.416996
     54 C17        -8.0420   -0.6960    0.5730 c3        1 MOL     -0.131086
     55 C18        -7.7570   -2.1390    1.1040 c         1 MOL      0.358343
     56 O9         -8.7450   -2.8280    1.4520 o         1 MOL     -0.513435
     57 H25        -6.2420    0.2090    0.8060 hn        1 MOL      0.288228
     58 H26        -8.8160   -0.7080   -0.1930 h1        1 MOL      0.141847
     59 H27        -8.4720   -0.1230    1.4010 h1        1 MOL      0.141847
     60 N6         -6.4610   -2.6410    1.0540 n         1 MOL      0.158161
     61 C19        -5.9940   -3.9850    1.5510 c3        1 MOL      0.073316
     62 C20        -6.2600   -4.2020    3.0570 c         1 MOL      0.565315
     63 O10        -6.9680   -5.1600    3.4240 o         1 MOL     -0.559235
     64 C21        -6.5000   -5.0780    0.6150 c3        1 MOL     -0.089991
     65 C22        -6.0060   -4.7970   -0.8350 c         1 MOL      0.647455
     66 O11        -6.7490   -4.1020   -1.5710 o         1 MOL     -0.703183
     67 O12        -4.8890   -5.2670   -1.2560 o         1 MOL     -0.703183
     68 H28        -5.7470   -1.9800    0.7820 hn        1 MOL      0.008231
     69 H29        -4.9100   -4.0520    1.4900 h1        1 MOL      0.021300
     70 H30        -7.5860   -5.0890    0.7080 hc        1 MOL      0.019897
     71 H31        -6.0950   -6.0090    1.0030 hc        1 MOL      0.019897
     72 N7         -5.8870   -3.3260    3.9560 n         1 MOL     -0.595393
     73 C23        -5.0030   -2.1290    3.7250 c3        1 MOL     -0.010375
     74 C24        -3.5580   -2.4360    3.8650 c         1 MOL      0.556792
     75 O13        -3.0660   -2.8190    4.9510 o         1 MOL     -0.555844
     76 H32        -6.2210   -3.3790    4.9030 hn        1 MOL      0.371858
     77 H33        -5.0720   -1.3800    4.5250 h1        1 MOL      0.039746
     78 H34        -5.1230   -1.6630    2.7540 h1        1 MOL      0.039746
     79 N8         -2.8860   -2.3740    2.6750 n         1 MOL     -0.420112
     80 C25        -1.5780   -3.0700    2.5320 c3        1 MOL     -0.035792
     81 C26        -0.6260   -2.5140    1.3730 c         1 MOL      0.054550
     82 O14        -0.8430   -2.7570    0.2070 o         1 MOL     -0.272673
     83 C27        -1.9140   -4.5560    2.3560 c3        1 MOL      0.609155
     84 C28        -0.7100   -5.4500    2.3260 c3        1 MOL     -0.477362
     85 O15        -2.6990   -4.7750    1.1820 oh        1 MOL     -0.809772
     86 H35        -3.3310   -1.9590    1.8680 hn        1 MOL      0.334360
     87 H36        -1.0420   -3.0220    3.4790 h1        1 MOL      0.036781
     88 H37        -2.4000   -4.8750    3.2760 h1        1 MOL     -0.004552
     89 H38        -2.8200   -5.7230    1.0860 ho        1 MOL      0.414920
     90 H39        -0.4180   -5.7370    3.3400 hc        1 MOL      0.107758
     91 H40        -0.9190   -6.3840    1.8040 hc        1 MOL      0.107758
     92 H41         0.0420   -4.8840    1.7780 hc        1 MOL      0.107758
     93 N9          0.3140   -1.8100    1.8790 n         1 MOL     -0.070973
     94 C29         1.3080   -1.1420    1.0250 c3        1 MOL     -0.463278
     95 C30         2.2390   -2.1640    0.3250 c         1 MOL      0.740248
     96 O16         1.8690   -3.1690   -0.2190 o         1 MOL     -0.502629
     97 C31         0.6710   -0.1540    0.0450 c3        1 MOL      0.352567
     98 C32        -0.3010    0.7470    0.8180 c3        1 MOL      0.091100
     99 C33         1.7490    0.6500   -0.6920 c3        1 MOL     -0.282974
    100 C34         0.2720    1.6030    1.9950 c3        1 MOL     -0.454081
    101 H42         0.5220   -1.9480    2.8640 hn        1 MOL      0.293696
    102 H43         1.9250   -0.5870    1.7170 h1        1 MOL      0.152765
    103 H44         0.1310   -0.6720   -0.7440 hc        1 MOL     -0.058680
    104 H45        -1.1140    0.0880    1.1450 hc        1 MOL      0.036356
    105 H46        -0.7220    1.4120    0.0650 hc        1 MOL      0.036356
    106 H47         1.2370    1.4410   -1.2460 hc        1 MOL      0.065892
    107 H48         2.3790    1.1160    0.0660 hc        1 MOL      0.065892
    108 H49         2.2620    0.0510   -1.4470 hc        1 MOL      0.065892
    109 H50         0.4460    0.9210    2.8300 hc        1 MOL      0.118151
    110 H51         1.1610    2.1320    1.6570 hc        1 MOL      0.118151
    111 H52        -0.5070    2.3340    2.1860 hc        1 MOL      0.118151
    112 N10         3.5810   -1.9110    0.3450 n         1 MOL     -0.613672
    113 C35         4.5570   -2.6940   -0.3410 c3        1 MOL      0.103782
    114 C36         6.0350   -2.3840    0.1320 c         1 MOL      0.614232
    115 O17         6.2680   -1.4040    0.8090 o         1 MOL     -0.522372
    116 C37         4.5380   -2.6330   -1.8520 c3        1 MOL      0.240257
    117 C38         4.8540   -1.2940   -2.4270 c3        1 MOL     -0.197564
    118 O18         3.2800   -2.9700   -2.4390 oh        1 MOL     -0.582940
    119 H53         3.8760   -0.9740    0.5360 hn        1 MOL      0.305387
    120 H54         4.3260   -3.7450   -0.1460 h1        1 MOL      0.035612
    121 H55         5.2470   -3.3830   -2.1970 h1        1 MOL      0.013869
    122 H56         2.7610   -3.4290   -1.7790 ho        1 MOL      0.318707
    123 H57         4.7380   -1.2970   -3.5130 hc        1 MOL      0.078103
    124 H58         4.1190   -0.5660   -2.0680 hc        1 MOL      0.078103
    125 H59         5.8590   -0.9330   -2.2480 hc        1 MOL      0.078103
    126 N11         7.0290   -3.1320   -0.2430 n         1 MOL     -0.688664
    127 C39         8.4570   -2.9870    0.1990 c3        1 MOL      0.313094
    128 C40         9.0450   -1.7530   -0.4410 c         1 MOL      0.375331
    129 O19         8.6480   -1.4010   -1.5840 o         1 MOL     -0.494559
    130 C41         9.2510   -4.2930   -0.1170 c3        1 MOL      0.285167
    131 C42        10.7790   -4.1620    0.2550 c3        1 MOL     -0.397300
    132 O20         8.7530   -5.3800    0.6190 oh        1 MOL     -0.597340
    133 H60         6.7340   -3.8450   -0.8840 hn        1 MOL      0.293501
    134 H61         8.4760   -2.7670    1.2680 h1        1 MOL      0.061005
    135 H62         9.1270   -4.4530   -1.1880 h1        1 MOL      0.015587
    136 H63         9.0160   -6.1250    0.0790 ho        1 MOL      0.396439
    137 H64        11.1620   -3.2730   -0.2450 hc        1 MOL      0.104298
    138 H65        10.9320   -4.1430    1.3320 hc        1 MOL      0.104298
    139 H66        11.2790   -5.0810   -0.0550 hc        1 MOL      0.104298
    140 N12         9.8350   -1.0150    0.3160 n         1 MOL     -0.336331
    141 C43        10.2220    0.4580    0.0830 c3        1 MOL      0.056875
    142 C44         9.0870    1.5270   -0.1220 c         1 MOL      0.504766
    143 O21         8.0470    1.2610   -0.7580 o         1 MOL     -0.399122
    144 C45        11.3090    0.5630   -0.9240 c3        1 MOL     -0.218989
    145 C46        12.6210   -0.0520   -0.2810 c3        1 MOL      0.006333
    146 C47        13.8370    0.5760   -1.0280 c3        1 MOL      0.053502
    147 C48        15.1620   -0.1350   -0.6000 c3        1 MOL      0.057799
    148 N13        16.4130    0.4510   -1.1270 n4        1 MOL     -0.134827
    149 H67         9.9390   -1.4850    1.2020 hn        1 MOL      0.208364
    150 H68        10.7160    0.8020    0.9960 h1        1 MOL      0.034996
    151 H69        11.5200    1.6210   -1.0880 hc        1 MOL      0.103616
    152 H70        11.0090    0.1560   -1.8880 hc        1 MOL      0.103616
    153 H71        12.6530   -1.1370   -0.3400 hc        1 MOL      0.021360
    154 H72        12.7540    0.2530    0.7590 hc        1 MOL      0.021360
    155 H73        14.0330    1.6360   -0.8590 hc        1 MOL      0.004386
    156 H74        13.6840    0.4600   -2.0970 hc        1 MOL      0.004386
    157 H75        15.0840   -1.1990   -0.8320 hx        1 MOL      0.038680
    158 H76        15.1290   -0.1030    0.4920 hx        1 MOL      0.038680
    159 H77        17.2120   -0.0910   -0.8350 hn        1 MOL      0.182223
    160 H78        16.3720    0.6710   -2.1110 hn        1 MOL      0.182223
    161 H79        16.7230    1.3080   -0.6900 hn        1 MOL      0.182223
    162 N14         9.3570    2.7650    0.3930 n         1 MOL     -0.563613
    163 C49         8.4680    3.9420    0.2120 c3        1 MOL      0.310232
    164 C50         6.9950    3.8180    0.6830 c         1 MOL      0.224067
    165 O22         6.0740    4.0390   -0.1640 o         1 MOL     -0.520534
    166 C51         9.0540    5.2280    0.8510 c3        1 MOL      0.079369
    167 C52         9.2350    6.3070   -0.1760 c3        1 MOL     -0.230570
    168 C53         9.7570    7.5530    0.4500 c         1 MOL      0.681678
    169 O23        10.9490    7.5510    0.8960 o         1 MOL     -0.667110
    170 O24         8.9480    8.4320    0.7800 o         1 MOL     -0.667110
    171 H80        10.2760    2.8880    0.8140 hn        1 MOL      0.296458
    172 H81         8.3750    4.0800   -0.8640 h1        1 MOL      0.018992
    173 H82        10.0070    4.9460    1.2980 hc        1 MOL      0.009433
    174 H83         8.4730    5.5950    1.6960 hc        1 MOL      0.009433
    175 H84         8.2350    6.4850   -0.5750 hc        1 MOL      0.031116
    176 H85         9.9040    5.9380   -0.9510 hc        1 MOL      0.031116
    177 N15         6.5620    3.4430    1.8840 n         1 MOL     -0.264920
    178 C54         7.4070    3.1810    3.0920 c3        1 MOL      0.117263
    179 H86         7.8070    2.1680    3.0420 h1        1 MOL     -0.000288
    180 H87         8.2300    3.8940    3.1220 h1        1 MOL     -0.000288
    181 H88         6.8000    3.2870    3.9910 h1        1 MOL     -0.000288
    182 H89         5.5730    3.3070    1.9640 hn        1 MOL      0.281281
    183 Ca1        -2.6230   -3.9230   -1.4860 Ca        1 MOL      1.725494
    184 O25        -2.6190   -5.1590   -3.9830 oh        1 MOL     -0.847078
    185 H90        -3.2770   -4.8860   -4.6140 ho        1 MOL      0.418690
    186 H91        -1.9170   -5.5440   -4.5200 ho        1 MOL      0.418690
    187 O26        -2.1700   -6.4620   -1.1450 oh        1 MOL     -0.847078
    188 H92        -1.8010   -6.9920   -1.8610 ho        1 MOL      0.418690
    189 H93        -2.4170   -7.1030   -0.4820 ho        1 MOL      0.418690
    190 O27        -4.8240   -3.1880   -3.2230 oh        1 MOL     -0.847078
    191 H94        -5.0450   -3.2650   -4.1510 ho        1 MOL      0.418690
    192 H95        -5.6250   -3.4500   -2.7650 ho        1 MOL      0.418690
    193 O28        -1.2860   -2.0440   -3.0430 oh        1 MOL     -0.847078
    194 H96        -1.2180   -2.0460   -4.0050 ho        1 MOL      0.418690
    195 H97        -0.8450   -1.2430   -2.7790 ho        1 MOL      0.418690
    196 O29        -0.0630   -4.6570   -2.0840 oh        1 MOL     -0.847078
    197 H98         0.4940   -4.7320   -1.3070 ho        1 MOL      0.418690
    198 H99         0.5440   -4.6570   -2.8240 ho        1 MOL      0.418690
@<TRIPOS>BOND
     1    1    2 1   
     2    1    4 1   
     3    1    5 1   
     4    1    6 1   
     5    2    3 2   
     6    2    7 1   
     7    7    8 1   
     8    7   15 1   
     9    8    9 1   
    10    8   11 1   
    11    8   16 1   
    12    9   10 2   
    13    9   19 1   
    14   11   12 1   
    15   11   17 1   
    16   11   18 1   
    17   12   13 1   
    18   12   14 1   
    19   19   20 1   
    20   19   28 1   
    21   20   21 1   
    22   20   23 1   
    23   20   29 1   
    24   21   22 2   
    25   21   41 1   
    26   23   24 1   
    27   23   30 1   
    28   23   31 1   
    29   24   25 1   
    30   24   32 1   
    31   24   33 1   
    32   25   26 1   
    33   25   34 1   
    34   25   35 1   
    35   26   27 1   
    36   26   36 1   
    37   26   37 1   
    38   27   38 1   
    39   27   39 1   
    40   27   40 1   
    41   41   42 1   
    42   41   49 1   
    43   42   43 1   
    44   42   45 1   
    45   42   50 1   
    46   43   44 2   
    47   43   53 1   
    48   45   46 1   
    49   45   51 1   
    50   45   52 1   
    51   46   47 1   
    52   46   48 1   
    53   53   54 1   
    54   53   57 1   
    55   54   55 1   
    56   54   58 1   
    57   54   59 1   
    58   55   56 2   
    59   55   60 1   
    60   60   61 1   
    61   60   68 1   
    62   61   62 1   
    63   61   64 1   
    64   61   69 1   
    65   62   63 2   
    66   62   72 1   
    67   64   65 1   
    68   64   70 1   
    69   64   71 1   
    70   65   66 1   
    71   65   67 1   
    72   72   73 1   
    73   72   76 1   
    74   73   74 1   
    75   73   77 1   
    76   73   78 1   
    77   74   75 2   
    78   74   79 1   
    79   79   80 1   
    80   79   86 1   
    81   80   81 1   
    82   80   83 1   
    83   80   87 1   
    84   81   82 2   
    85   81   93 1   
    86   83   84 1   
    87   83   85 1   
    88   83   88 1   
    89   84   90 1   
    90   84   91 1   
    91   84   92 1   
    92   85   89 1   
    93   93   94 1   
    94   93  101 1   
    95   94   95 1   
    96   94   97 1   
    97   94  102 1   
    98   95   96 2   
    99   95  112 1   
   100   97   98 1   
   101   97   99 1   
   102   97  103 1   
   103   98  100 1   
   104   98  104 1   
   105   98  105 1   
   106   99  106 1   
   107   99  107 1   
   108   99  108 1   
   109  100  109 1   
   110  100  110 1   
   111  100  111 1   
   112  112  113 1   
   113  112  119 1   
   114  113  114 1   
   115  113  116 1   
   116  113  120 1   
   117  114  115 2   
   118  114  126 1   
   119  116  117 1   
   120  116  118 1   
   121  116  121 1   
   122  117  123 1   
   123  117  124 1   
   124  117  125 1   
   125  118  122 1   
   126  126  127 1   
   127  126  133 1   
   128  127  128 1   
   129  127  130 1   
   130  127  134 1   
   131  128  129 2   
   132  128  140 1   
   133  130  131 1   
   134  130  132 1   
   135  130  135 1   
   136  131  137 1   
   137  131  138 1   
   138  131  139 1   
   139  132  136 1   
   140  140  141 1   
   141  140  149 1   
   142  141  142 1   
   143  141  144 1   
   144  141  150 1   
   145  142  143 2   
   146  142  162 1   
   147  144  145 1   
   148  144  151 1   
   149  144  152 1   
   150  145  146 1   
   151  145  153 1   
   152  145  154 1   
   153  146  147 1   
   154  146  155 1   
   155  146  156 1   
   156  147  148 1   
   157  147  157 1   
   158  147  158 1   
   159  148  159 1   
   160  148  160 1   
   161  148  161 1   
   162  162  163 1   
   163  162  171 1   
   164  163  164 1   
   165  163  166 1   
   166  163  172 1   
   167  164  165 2   
   168  164  177 1   
   169  166  167 1   
   170  166  173 1   
   171  166  174 1   
   172  167  168 1   
   173  167  175 1   
   174  167  176 1   
   175  168  169 1   
   176  168  170 1   
   177  177  178 1   
   178  177  182 1   
   179  178  179 1   
   180  178  180 1   
   181  178  181 1   
   182  184  185 1   
   183  184  186 1   
   184  187  188 1   
   185  187  189 1   
   186  190  191 1   
   187  190  192 1   
   188  193  194 1   
   189  193  195 1   
   190  196  197 1   
   191  196  198 1   
@<TRIPOS>SUBSTRUCTURE
     1 MOL         1 TEMP              0 ****  ****    0 ROOT
