@<TRIPOS>MOLECULE
MOL
  192   187     1     0     0
SMALL
resp


@<TRIPOS>ATOM
      1 C1         -3.3800   -6.1060   -2.4190 c3        1 MOL     -0.351296
      2 C2         -3.9320   -5.2160   -1.3350 c         1 MOL      0.755617
      3 O1         -3.1210   -4.4570   -0.7970 o         1 MOL     -0.744681
      4 H1         -2.3730   -5.7800   -2.6780 hc        1 MOL      0.088639
      5 H2         -3.3480   -7.1360   -2.0630 hc        1 MOL      0.088639
      6 H3         -4.0190   -6.0450   -3.3000 hc        1 MOL      0.088639
      7 N1         -5.1930   -5.1440   -1.1340 n         1 MOL     -0.683063
      8 C3         -5.9170   -4.1380   -0.3120 c3        1 MOL      0.216182
      9 C4         -5.3740   -2.7580   -0.4940 c         1 MOL      0.080024
     10 O2         -5.0840   -1.9980    0.3810 o         1 MOL     -0.237411
     11 C5         -6.0120   -4.5730    1.1590 c3        1 MOL     -0.145540
     12 C6         -4.6790   -4.9310    1.7200 c         1 MOL      0.993691
     13 O3         -3.7610   -4.1100    1.7840 o         1 MOL     -0.830347
     14 O4         -4.5620   -6.0770    2.3050 o         1 MOL     -0.830347
     15 H4         -5.7990   -5.8130   -1.5990 hn        1 MOL      0.351548
     16 H5         -6.9700   -4.0640   -0.5900 h1        1 MOL      0.082797
     17 H6         -6.6420   -5.4590    1.2300 hc        1 MOL      0.030031
     18 H7         -6.3610   -3.7040    1.7180 hc        1 MOL      0.030031
     19 N2         -5.4760   -2.3890   -1.8340 n         1 MOL     -0.111046
     20 C7         -5.3890   -1.0240   -2.4470 c3        1 MOL     -0.448909
     21 C8         -6.5540   -0.0900   -1.9930 c         1 MOL      0.680685
     22 O5         -7.4560    0.1740   -2.7600 o         1 MOL     -0.563845
     23 C9         -3.9460   -0.4790   -2.2440 c3        1 MOL      0.380808
     24 C10        -3.5380    0.8280   -2.9580 c3        1 MOL     -0.238087
     25 C11        -2.9050   -1.5950   -2.5950 c3        1 MOL     -0.030500
     26 C12        -3.4440    0.8540   -4.5210 c3        1 MOL     -0.305700
     27 H8         -5.6550   -3.2140   -2.3910 hn        1 MOL      0.221078
     28 H9         -5.4340   -1.3080   -3.5010 h1        1 MOL      0.127411
     29 H10        -3.8390   -0.2300   -1.1890 hc        1 MOL     -0.049486
     30 H11        -2.5270    1.1370   -2.6910 hc        1 MOL      0.113552
     31 H12        -4.3040    1.5830   -2.7620 hc        1 MOL      0.113552
     32 H13        -2.6330   -2.3020   -1.8090 hc        1 MOL      0.004420
     33 H14        -3.2690   -2.1680   -3.4520 hc        1 MOL      0.004420
     34 H15        -2.0720   -1.0310   -3.0010 hc        1 MOL      0.004420
     35 H16        -2.7610    0.1120   -4.9160 hc        1 MOL      0.073658
     36 H17        -4.4350    0.6620   -4.9210 hc        1 MOL      0.073658
     37 H18        -3.1490    1.8610   -4.8340 hc        1 MOL      0.073658
     38 N3         -6.5910    0.2170   -0.6810 n         1 MOL     -0.429237
     39 C13        -7.7230    0.9380   -0.0090 c3        1 MOL      0.030793
     40 C14        -7.7300    2.5240   -0.0560 c         1 MOL      0.647678
     41 O6         -8.6310    3.0790   -0.6330 o         1 MOL     -0.569054
     42 C15        -7.7530    0.3510    1.4160 c3        1 MOL     -0.235839
     43 C16        -8.1430   -1.1360    1.4700 c         1 MOL      0.698414
     44 O7         -8.7450   -1.8570    0.5860 o         1 MOL     -0.705714
     45 O8         -7.9680   -1.6920    2.5970 o         1 MOL     -0.705714
     46 H19        -5.8480   -0.2510   -0.1670 hn        1 MOL      0.197946
     47 H20        -8.6360    0.6670   -0.5310 h1        1 MOL      0.072703
     48 H21        -8.4630    0.8460    2.0770 hc        1 MOL      0.076116
     49 H22        -6.8020    0.5440    1.9250 hc        1 MOL      0.076116
     50 N4         -6.5860    3.2470    0.2730 n         1 MOL     -0.596960
     51 C17        -5.4750    2.8420    1.0650 c3        1 MOL     -0.295355
     52 C18        -5.5700    3.2140    2.5640 c         1 MOL      0.876359
     53 O9         -6.6830    3.5300    3.0100 o         1 MOL     -0.616306
     54 H23        -6.5570    4.2110   -0.0330 hn        1 MOL      0.337498
     55 H24        -4.6050    3.3780    0.6780 h1        1 MOL      0.211295
     56 H25        -5.3100    1.7710    1.1340 h1        1 MOL      0.211295
     57 N5         -4.4780    3.2900    3.3290 n         1 MOL     -0.991247
     58 C19        -3.0800    2.9860    3.0290 c3        1 MOL      0.954457
     59 C20        -2.6840    1.4620    3.0160 c         1 MOL      0.199059
     60 O10        -3.3680    0.6530    3.6250 o         1 MOL     -0.486885
     61 C21        -2.2520    3.6240    4.1970 c3        1 MOL     -0.446874
     62 C22        -2.3980    5.1850    4.2530 c         1 MOL      0.695169
     63 O11        -2.9540    5.7860    3.3150 o         1 MOL     -0.690226
     64 O12        -1.9170    5.7430    5.2710 o         1 MOL     -0.690226
     65 H26        -4.6250    3.6860    4.2550 hn        1 MOL      0.399234
     66 H27        -2.9210    3.5000    2.0930 h1        1 MOL     -0.244913
     67 H28        -1.1780    3.4750    4.0500 hc        1 MOL      0.086535
     68 H29        -2.6610    3.1670    5.0950 hc        1 MOL      0.086535
     69 N6         -1.6380    1.0020    2.3300 n         1 MOL     -0.490582
     70 C23        -0.8130    1.7680    1.4450 c3        1 MOL     -0.121397
     71 C24        -1.5260    2.2930    0.2290 c         1 MOL      1.105938
     72 O13        -2.6480    1.8830   -0.0500 o         1 MOL     -0.748811
     73 H30        -1.4710    0.0090    2.3040 hn        1 MOL      0.474813
     74 H31         0.0070    1.1190    1.1170 h1        1 MOL      0.062915
     75 H32        -0.4050    2.6110    2.0030 h1        1 MOL      0.062915
     76 N7         -0.8050    3.1460   -0.5900 n         1 MOL     -1.139222
     77 C25        -1.2030    3.8650   -1.8190 c3        1 MOL      0.421132
     78 C26        -0.2640    3.5600   -3.0660 c         1 MOL      0.317034
     79 O14        -0.1800    4.3750   -3.9830 o         1 MOL     -0.535828
     80 C27        -1.2480    5.3700   -1.4890 c3        1 MOL     -0.009409
     81 C28        -2.0270    5.6860   -0.1600 c3        1 MOL      0.035427
     82 C29        -2.4590    7.1150    0.0300 c         1 MOL      0.570640
     83 N8         -2.8850    7.5310    1.1550 n         1 MOL     -0.726674
     84 O15        -2.2700    7.9180   -0.9040 o         1 MOL     -0.624314
     85 H33         0.1260    3.4160   -0.2990 hn        1 MOL      0.402881
     86 H34        -2.2380    3.6420   -2.0790 h1        1 MOL      0.021638
     87 H35        -1.7770    5.8790   -2.2980 hc        1 MOL     -0.006590
     88 H36        -0.2600    5.8420   -1.4690 hc        1 MOL     -0.006590
     89 H37        -1.3150    5.3710    0.6030 hc        1 MOL      0.016230
     90 H38        -2.9440    5.0960   -0.0640 hc        1 MOL      0.016230
     91 H39        -3.0430    6.8440    1.8780 hn        1 MOL      0.354169
     92 H40        -2.9010    8.5120    1.3620 hn        1 MOL      0.354169
     93 N9          0.4720    2.4940   -3.0010 n         1 MOL     -0.076970
     94 C30         1.7050    2.1360   -3.7250 c3        1 MOL     -0.114561
     95 C31         2.9400    2.5060   -2.9160 c         1 MOL      0.569408
     96 O16         3.0560    2.1190   -1.7550 o         1 MOL     -0.559926
     97 C32         1.7340    0.6670   -4.2340 c3        1 MOL      0.282207
     98 C33         2.7730    0.4000   -5.3580 c3        1 MOL     -0.126577
     99 C34         0.3320    0.3020   -4.7580 c3        1 MOL     -0.126577
    100 H41         0.2210    1.7570   -2.3680 hn        1 MOL      0.189730
    101 H42         1.6650    2.8480   -4.5520 h1        1 MOL      0.043903
    102 H43         2.0500    0.0180   -3.4150 hc        1 MOL     -0.028446
    103 H44         3.7410    0.7800   -5.0310 hc        1 MOL      0.011375
    104 H45         2.8420   -0.6580   -5.6060 hc        1 MOL      0.011375
    105 H46         2.4060    0.9080   -6.2490 hc        1 MOL      0.011375
    106 H47         0.2920   -0.6360   -5.3150 hc        1 MOL      0.011375
    107 H48        -0.3110    0.3420   -3.8780 hc        1 MOL      0.011375
    108 H49        -0.0820    1.0750   -5.4090 hc        1 MOL      0.011375
    109 N10         3.9350    3.2030   -3.4820 n         1 MOL     -0.414525
    110 C35         5.1900    3.7210   -2.8520 c3        1 MOL      0.180041
    111 C36         6.2240    2.7080   -2.2090 c         1 MOL      0.266344
    112 O17         7.4190    2.7520   -2.5350 o         1 MOL     -0.534712
    113 C37         4.8900    4.7800   -1.8490 c3        1 MOL     -0.577843
    114 C38         6.0150    5.3000   -0.9350 c         1 MOL      0.608700
    115 N11         7.2180    5.5880   -1.3930 n         1 MOL     -0.681443
    116 O18         5.8350    5.3170    0.2710 o         1 MOL     -0.520721
    117 H50         3.7600    3.6070   -4.4050 hn        1 MOL      0.274076
    118 H51         5.7460    4.1410   -3.6970 h1        1 MOL      0.053023
    119 H52         4.1660    4.3860   -1.1380 hc        1 MOL      0.203293
    120 H53         4.4680    5.5780   -2.4510 hc        1 MOL      0.203293
    121 H54         7.3870    5.4930   -2.3870 hn        1 MOL      0.334179
    122 H55         7.8170    6.1370   -0.7970 hn        1 MOL      0.334179
    123 N12         5.7820    1.8040   -1.3620 n         1 MOL     -0.068403
    124 C39         6.6330    0.9180   -0.6040 c3        1 MOL     -0.023344
    125 C40         5.8840   -0.3670   -0.0450 c         1 MOL      0.338496
    126 O19         4.6830   -0.2100    0.1790 o         1 MOL     -0.430124
    127 C41         7.2910    1.7880    0.4980 c3        1 MOL     -0.277848
    128 C42         8.1390    1.0000    1.5030 ca        1 MOL     -0.049424
    129 C43         7.7480    0.8330    2.7820 ca        1 MOL     -0.010098
    130 C44         9.3730    0.4670    1.1250 ca        1 MOL     -0.010098
    131 C45         8.4920    0.0800    3.7010 ca        1 MOL     -0.394394
    132 C46        10.2390   -0.1620    1.9940 ca        1 MOL     -0.394394
    133 C47         9.7670   -0.3790    3.3000 ca        1 MOL      0.479523
    134 O20        10.5940   -0.9830    4.2110 oh        1 MOL     -0.596260
    135 H56         4.7730    1.7760   -1.2790 hn        1 MOL      0.186605
    136 H57         7.4800    0.5960   -1.2110 h1        1 MOL      0.061805
    137 H58         6.4820    2.2800    1.0510 hc        1 MOL      0.168364
    138 H59         7.7850    2.6820    0.1220 hc        1 MOL      0.168364
    139 H60         6.8120    1.3090    3.0570 ha        1 MOL      0.084486
    140 H61         9.7390    0.6700    0.1220 ha        1 MOL      0.084486
    141 H62         8.1080    0.0160    4.7110 ha        1 MOL      0.178897
    142 H63        11.2240   -0.4290    1.6600 ha        1 MOL      0.178897
    143 H64        10.0270   -1.2600    4.9320 ho        1 MOL      0.426184
    144 N13         6.5970   -1.4750    0.2860 n         1 MOL     -0.364879
    145 C48         5.9620   -2.5890    1.0810 c3        1 MOL     -0.138572
    146 C49         4.7720   -3.3440    0.3570 c         1 MOL      0.597596
    147 O21         4.3160   -4.3950    0.8530 o         1 MOL     -0.542799
    148 C50         5.4720   -2.0400    2.4530 c3        1 MOL      0.323206
    149 C51         5.4210   -3.0480    3.5840 c3        1 MOL     -0.424553
    150 C52         5.3660   -2.3340    4.9400 c         1 MOL      0.792118
    151 O22         4.5760   -1.3680    5.1030 o         1 MOL     -0.749495
    152 O23         6.0740   -2.6900    5.8960 o         1 MOL     -0.749495
    153 H65         7.5700   -1.5410    0.0410 hn        1 MOL      0.246680
    154 H66         6.7790   -3.2660    1.3040 h1        1 MOL      0.097936
    155 H67         4.4780   -1.5940    2.3740 hc        1 MOL      0.010735
    156 H68         6.1790   -1.2820    2.7710 hc        1 MOL      0.010735
    157 H69         6.2990   -3.6930    3.5560 hc        1 MOL      0.047276
    158 H70         4.5320   -3.6560    3.4350 hc        1 MOL      0.047276
    159 N14         4.5000   -2.9110   -0.8640 n         1 MOL     -0.554383
    160 C53         3.4170   -3.6040   -1.6020 c3        1 MOL      0.064895
    161 C54         3.7370   -4.9350   -2.3750 c         1 MOL      0.429713
    162 O24         3.0050   -5.8860   -2.4180 o         1 MOL     -0.461874
    163 C55         2.6780   -2.6250   -2.5270 c3        1 MOL      0.338965
    164 C56         1.3070   -3.0000   -3.0420 c3        1 MOL      0.234458
    165 C57         0.3300   -3.1950   -1.8080 c         1 MOL      0.722988
    166 O25         0.2520   -4.3510   -1.2670 o         1 MOL     -0.802537
    167 O26        -0.2020   -2.2360   -1.2300 o         1 MOL     -0.802537
    168 H71         5.1080   -2.2430   -1.3190 hn        1 MOL      0.270282
    169 H72         2.6600   -3.8270   -0.8430 h1        1 MOL      0.066361
    170 H73         3.3670   -2.5440   -3.3670 hc        1 MOL     -0.115393
    171 H74         2.6390   -1.6100   -2.1260 hc        1 MOL     -0.115393
    172 H75         1.3670   -3.9270   -3.6140 hc        1 MOL     -0.108938
    173 H76         0.9610   -2.2000   -3.6950 hc        1 MOL     -0.108938
    174 N15         4.9270   -4.8560   -2.9570 n         1 MOL     -0.198698
    175 C58         5.5140   -5.8800   -3.7600 c3        1 MOL     -0.422901
    176 H77         6.4320   -5.5050   -4.2110 h1        1 MOL      0.143998
    177 H78         5.7430   -6.7450   -3.1370 h1        1 MOL      0.143998
    178 H79         4.8170   -6.1720   -4.5450 h1        1 MOL      0.143998
    179 H80         5.4570   -4.0230   -2.7470 hn        1 MOL      0.217771
    180 Ca1        -1.2350   -3.7030    0.8850 Ca        1 MOL      1.828865
    181 O27        -2.4580   -1.1650    0.6600 oh        1 MOL     -0.877852
    182 H81        -3.4130   -1.2200    0.6150 ho        1 MOL      0.422079
    183 H82        -2.2350   -0.3730    0.1870 ho        1 MOL      0.422079
    184 O28        -1.4000   -4.0780    3.7860 oh        1 MOL     -0.877852
    185 H83        -1.9040   -4.8080    4.1530 ho        1 MOL      0.422079
    186 H84        -0.8750   -3.7540    4.5270 ho        1 MOL      0.422079
    187 O29         0.4660   -1.7230    1.7700 oh        1 MOL     -0.877852
    188 H85         1.0440   -1.8130    2.5270 ho        1 MOL      0.422079
    189 H86         0.9820   -1.2110    1.1380 ho        1 MOL      0.422079
    190 O30        -1.6780   -6.2920    1.6110 oh        1 MOL     -0.877852
    191 H87        -1.4240   -7.1140    2.0460 ho        1 MOL      0.422079
    192 H88        -2.5710   -6.1450    1.9050 ho        1 MOL      0.422079
@<TRIPOS>BOND
     1    1    2 1   
     2    1    4 1   
     3    1    5 1   
     4    1    6 1   
     5    2    3 2   
     6    2    7 1   
     7    7    8 1   
     8    7   15 1   
     9    8    9 1   
    10    8   11 1   
    11    8   16 1   
    12    9   10 2   
    13    9   19 1   
    14   11   12 1   
    15   11   17 1   
    16   11   18 1   
    17   12   13 1   
    18   12   14 1   
    19   19   20 1   
    20   19   27 1   
    21   20   21 1   
    22   20   23 1   
    23   20   28 1   
    24   21   22 2   
    25   21   38 1   
    26   23   24 1   
    27   23   25 1   
    28   23   29 1   
    29   24   26 1   
    30   24   30 1   
    31   24   31 1   
    32   25   32 1   
    33   25   33 1   
    34   25   34 1   
    35   26   35 1   
    36   26   36 1   
    37   26   37 1   
    38   38   39 1   
    39   38   46 1   
    40   39   40 1   
    41   39   42 1   
    42   39   47 1   
    43   40   41 2   
    44   40   50 1   
    45   42   43 1   
    46   42   48 1   
    47   42   49 1   
    48   43   44 1   
    49   43   45 1   
    50   50   51 1   
    51   50   54 1   
    52   51   52 1   
    53   51   55 1   
    54   51   56 1   
    55   52   53 2   
    56   52   57 1   
    57   57   58 1   
    58   57   65 1   
    59   58   59 1   
    60   58   61 1   
    61   58   66 1   
    62   59   60 2   
    63   59   69 1   
    64   61   62 1   
    65   61   67 1   
    66   61   68 1   
    67   62   63 1   
    68   62   64 1   
    69   69   70 1   
    70   69   73 1   
    71   70   71 1   
    72   70   74 1   
    73   70   75 1   
    74   71   72 2   
    75   71   76 1   
    76   76   77 1   
    77   76   85 1   
    78   77   78 1   
    79   77   80 1   
    80   77   86 1   
    81   78   79 2   
    82   78   93 1   
    83   80   81 1   
    84   80   87 1   
    85   80   88 1   
    86   81   82 1   
    87   81   89 1   
    88   81   90 1   
    89   82   83 1   
    90   82   84 2   
    91   83   91 1   
    92   83   92 1   
    93   93   94 1   
    94   93  100 1   
    95   94   95 1   
    96   94   97 1   
    97   94  101 1   
    98   95   96 2   
    99   95  109 1   
   100   97   98 1   
   101   97   99 1   
   102   97  102 1   
   103   98  103 1   
   104   98  104 1   
   105   98  105 1   
   106   99  106 1   
   107   99  107 1   
   108   99  108 1   
   109  109  110 1   
   110  109  117 1   
   111  110  111 1   
   112  110  113 1   
   113  110  118 1   
   114  111  112 2   
   115  111  123 1   
   116  113  114 1   
   117  113  119 1   
   118  113  120 1   
   119  114  115 1   
   120  114  116 2   
   121  115  121 1   
   122  115  122 1   
   123  123  124 1   
   124  123  135 1   
   125  124  125 1   
   126  124  127 1   
   127  124  136 1   
   128  125  126 2   
   129  125  144 1   
   130  127  128 1   
   131  127  137 1   
   132  127  138 1   
   133  128  129 ar  
   134  128  130 ar  
   135  129  131 ar  
   136  129  139 1   
   137  130  132 ar  
   138  130  140 1   
   139  131  133 ar  
   140  131  141 1   
   141  132  133 ar  
   142  132  142 1   
   143  133  134 1   
   144  134  143 1   
   145  144  145 1   
   146  144  153 1   
   147  145  146 1   
   148  145  148 1   
   149  145  154 1   
   150  146  147 2   
   151  146  159 1   
   152  148  149 1   
   153  148  155 1   
   154  148  156 1   
   155  149  150 1   
   156  149  157 1   
   157  149  158 1   
   158  150  151 1   
   159  150  152 1   
   160  159  160 1   
   161  159  168 1   
   162  160  161 1   
   163  160  163 1   
   164  160  169 1   
   165  161  162 2   
   166  161  174 1   
   167  163  164 1   
   168  163  170 1   
   169  163  171 1   
   170  164  165 1   
   171  164  172 1   
   172  164  173 1   
   173  165  166 1   
   174  165  167 1   
   175  174  175 1   
   176  174  179 1   
   177  175  176 1   
   178  175  177 1   
   179  175  178 1   
   180  181  182 1   
   181  181  183 1   
   182  184  185 1   
   183  184  186 1   
   184  187  188 1   
   185  187  189 1   
   186  190  191 1   
   187  190  192 1   
@<TRIPOS>SUBSTRUCTURE
     1 MOL         1 TEMP              0 ****  ****    0 ROOT
