@<TRIPOS>MOLECULE
MOL
  186   183     1     0     0
SMALL
resp


@<TRIPOS>ATOM
      1 C1        -12.1690    4.0040    3.9710 c3        1 MOL     -0.522561
      2 C2        -12.1310    3.1550    2.7120 c         1 MOL      0.667844
      3 O1        -12.6650    2.0050    2.7280 o         1 MOL     -0.610767
      4 H1        -13.0180    3.7040    4.5850 hc        1 MOL      0.139681
      5 H2        -11.2470    3.8620    4.5330 hc        1 MOL      0.139681
      6 H3        -12.2720    5.0540    3.6980 hc        1 MOL      0.139681
      7 N1        -11.7170    3.7200    1.6090 n         1 MOL     -0.088291
      8 C3        -11.4670    3.0140    0.3300 c3        1 MOL     -0.733016
      9 C4        -10.2570    2.0270    0.3290 c         1 MOL      0.427666
     10 O2         -9.2280    2.2000    1.0190 o         1 MOL     -0.573753
     11 C5        -11.3190    3.9570   -0.8750 c3        1 MOL      0.394899
     12 C6        -10.3680    5.1560   -0.7570 c         1 MOL      0.638139
     13 O3         -9.6440    5.2460    0.2520 o         1 MOL     -0.703858
     14 O4        -10.2340    5.9980   -1.6670 o         1 MOL     -0.703858
     15 H4        -11.2420    4.6050    1.7600 hn        1 MOL      0.110848
     16 H5        -12.3360    2.3810    0.1440 h1        1 MOL      0.210673
     17 H6        -12.3010    4.3400   -1.1470 hc        1 MOL     -0.026605
     18 H7        -11.0100    3.3350   -1.7130 hc        1 MOL     -0.026605
     19 N2        -10.5500    0.8700   -0.3050 n         1 MOL     -0.244219
     20 C7         -9.7270   -0.4030   -0.3270 c3        1 MOL      0.276217
     21 C8         -8.3340   -0.4060   -1.0490 c         1 MOL      0.206482
     22 O5         -8.0240   -1.2920   -1.9070 o         1 MOL     -0.409016
     23 C9        -10.6900   -1.5150   -0.7980 c3        1 MOL     -0.497849
     24 C10       -11.8440   -1.9080    0.1000 c3        1 MOL      0.360304
     25 C11       -12.6760   -3.1140   -0.5080 c3        1 MOL     -0.003745
     26 C12       -13.8060   -3.5090    0.4330 c3        1 MOL     -0.165178
     27 N3        -14.8290   -2.4260    0.7570 n4        1 MOL     -0.206514
     28 H8        -11.4300    0.9080   -0.7980 hn        1 MOL      0.267926
     29 H9         -9.4770   -0.5690    0.7280 h1        1 MOL      0.045852
     30 H10       -10.0560   -2.3930   -0.6870 hc        1 MOL      0.146825
     31 H11       -11.0100   -1.3070   -1.8250 hc        1 MOL      0.146825
     32 H12       -12.4970   -1.0430    0.1590 hc        1 MOL     -0.071946
     33 H13       -11.4970   -2.1620    1.1010 hc        1 MOL     -0.071946
     34 H14       -12.0160   -3.9630   -0.7170 hc        1 MOL      0.042985
     35 H15       -13.1200   -2.7540   -1.4420 hc        1 MOL      0.042985
     36 H16       -13.3410   -3.7700    1.3850 hx        1 MOL      0.134685
     37 H17       -14.3890   -4.3340    0.0410 hx        1 MOL      0.134685
     38 H18       -15.2200   -2.0830   -0.1060 hn        1 MOL      0.252294
     39 H19       -15.5630   -2.7460    1.3720 hn        1 MOL      0.252294
     40 H20       -14.3830   -1.6730    1.2660 hn        1 MOL      0.252294
     41 N4         -7.4970    0.6070   -0.6810 n         1 MOL     -0.057417
     42 C13        -6.1630    0.8880   -1.1820 c3        1 MOL     -0.190111
     43 C14        -5.3680    1.6230   -0.0990 c         1 MOL      0.295789
     44 O6         -5.8460    2.3290    0.7780 o         1 MOL     -0.595030
     45 C15        -6.1360    1.6960   -2.4670 c3        1 MOL     -0.053526
     46 C16        -6.7970    3.0650   -2.4490 c         1 MOL      0.519601
     47 O7         -7.2030    3.5990   -1.3810 o         1 MOL     -0.619265
     48 O8         -6.8540    3.6490   -3.5510 o         1 MOL     -0.619265
     49 H21        -7.7380    1.2240    0.0810 hn        1 MOL      0.205381
     50 H22        -5.6910   -0.0680   -1.3980 h1        1 MOL      0.205181
     51 H23        -6.5730    1.1100   -3.2870 hc        1 MOL      0.070352
     52 H24        -5.0780    1.7670   -2.7330 hc        1 MOL      0.070352
     53 N5         -4.0660    1.5040    0.0010 n         1 MOL     -0.225034
     54 C17        -3.1590    0.7190   -0.7330 c3        1 MOL     -0.152147
     55 C18        -3.4510   -0.7770   -0.6510 c         1 MOL      0.685098
     56 O9         -3.9330   -1.3100    0.3560 o         1 MOL     -0.536739
     57 H25        -3.6070    1.9920    0.7540 hn        1 MOL      0.268731
     58 H26        -2.1350    0.8880   -0.4100 h1        1 MOL      0.086098
     59 H27        -3.1610    1.0230   -1.7840 h1        1 MOL      0.086098
     60 N6         -3.1310   -1.5400   -1.6880 n         1 MOL     -0.663514
     61 C19        -3.7470   -2.8520   -1.8450 c3        1 MOL      0.119098
     62 C20        -2.6910   -3.9020   -2.0850 c         1 MOL      0.564727
     63 O10        -1.7050   -3.6790   -2.7340 o         1 MOL     -0.523638
     64 C21        -4.8280   -2.8100   -2.9160 c3        1 MOL     -0.042044
     65 C22        -5.5440   -4.1920   -3.0800 c         1 MOL      0.660248
     66 O11        -6.2060   -4.6540   -2.1600 o         1 MOL     -0.653623
     67 O12        -5.4250   -4.7390   -4.2250 o         1 MOL     -0.653623
     68 H28        -2.7470   -1.1490   -2.5400 hn        1 MOL      0.341867
     69 H29        -4.1990   -3.0920   -0.8860 h1        1 MOL     -0.004591
     70 H30        -4.2400   -2.5100   -3.7820 hc        1 MOL     -0.010014
     71 H31        -5.5080   -1.9750   -2.7510 hc        1 MOL     -0.010014
     72 N7         -2.8870   -5.0740   -1.4590 n         1 MOL     -0.304967
     73 C23        -1.8800   -6.1690   -1.5060 c3        1 MOL     -0.452487
     74 C24        -0.6980   -6.0420   -0.6170 c         1 MOL      0.616698
     75 O13         0.1310   -6.9480   -0.6190 o         1 MOL     -0.571681
     76 H32        -3.6150   -5.2240   -0.7770 hn        1 MOL      0.263509
     77 H33        -1.5590   -6.2980   -2.5400 h1        1 MOL      0.196296
     78 H34        -2.4050   -7.0410   -1.1050 h1        1 MOL      0.196296
     79 N8         -0.6300   -5.0160    0.1800 n         1 MOL     -0.176065
     80 C25         0.5260   -4.7480    1.0970 c3        1 MOL     -0.332049
     81 C26         1.0480   -3.3600    0.8750 c         1 MOL      0.745513
     82 O14         0.2870   -2.5620    0.3980 o         1 MOL     -0.528066
     83 C27         0.2570   -5.0820    2.5750 c3        1 MOL      0.396787
     84 C28        -0.8110   -4.2360    3.2670 c3        1 MOL     -0.345468
     85 O15        -0.0920   -6.4710    2.6370 oh        1 MOL     -0.620870
     86 H35        -1.4290   -4.3910    0.2500 hn        1 MOL      0.253677
     87 H36         1.4010   -5.3000    0.7520 h1        1 MOL      0.132243
     88 H37         1.1370   -4.9970    3.2090 h1        1 MOL     -0.011252
     89 H38        -0.0450   -6.8210    3.5260 ho        1 MOL      0.393649
     90 H39        -0.3020   -3.5870    3.9840 hc        1 MOL      0.086861
     91 H40        -1.3190   -3.6160    2.5200 hc        1 MOL      0.086861
     92 H41        -1.5320   -4.9290    3.7140 hc        1 MOL      0.086861
     93 N9          2.3460   -3.0320    1.2430 n         1 MOL     -0.689989
     94 C29         2.9280   -1.7380    0.9380 c3        1 MOL     -0.013532
     95 C30         4.3500   -1.7570    0.3050 c         1 MOL      0.690953
     96 O16         4.6210   -0.8660   -0.5040 o         1 MOL     -0.524228
     97 C31         3.0250   -0.8840    2.2160 c3        1 MOL      0.076130
     98 C32         1.8250   -1.0130    3.2070 c3        1 MOL      0.107947
     99 C33         2.9850    0.6340    1.7760 c3        1 MOL     -0.264397
    100 C34         1.9730   -0.1500    4.4090 c3        1 MOL     -0.230786
    101 H42         2.8530   -3.7950    1.6590 hn        1 MOL      0.312495
    102 H43         2.3510   -1.2210    0.1630 h1        1 MOL      0.104494
    103 H44         3.9410   -1.0600    2.7770 hc        1 MOL      0.007800
    104 H45         1.8200   -2.0140    3.6370 hc        1 MOL      0.014329
    105 H46         0.9230   -0.7980    2.6380 hc        1 MOL      0.014329
    106 H47         1.9670    0.9980    1.7200 hc        1 MOL      0.071994
    107 H48         3.4560    1.3420    2.4600 hc        1 MOL      0.071994
    108 H49         3.5330    0.7520    0.8420 hc        1 MOL      0.071994
    109 H50         1.2040   -0.5220    5.0930 hc        1 MOL      0.049448
    110 H51         2.9210   -0.1800    4.9260 hc        1 MOL      0.049448
    111 H52         1.7750    0.8760    4.1040 hc        1 MOL      0.049448
    112 N10         5.2400   -2.7160    0.6720 n         1 MOL     -0.506767
    113 C35         6.5540   -2.7950    0.0720 c3        1 MOL     -0.218289
    114 C36         7.7190   -2.6430    1.0590 c         1 MOL      0.711135
    115 O17         7.5550   -2.9090    2.2730 o         1 MOL     -0.562869
    116 C37         6.7200   -4.1350   -0.6590 c3        1 MOL      0.469891
    117 C38         5.7710   -4.1780   -1.8130 c3        1 MOL     -0.361162
    118 O18         7.9430   -4.3070   -1.2390 oh        1 MOL     -0.624564
    119 H53         4.8120   -3.4660    1.2030 hn        1 MOL      0.286107
    120 H54         6.6330   -1.9210   -0.5610 h1        1 MOL      0.146676
    121 H55         6.4410   -4.9040    0.0640 h1        1 MOL      0.035470
    122 H56         8.0970   -3.4570   -1.6720 ho        1 MOL      0.374973
    123 H57         4.7870   -4.4640   -1.4240 hc        1 MOL      0.090393
    124 H58         5.6340   -3.1900   -2.2580 hc        1 MOL      0.090393
    125 H59         5.8560   -5.0550   -2.4590 hc        1 MOL      0.090393
    126 N11         8.8780   -2.2100    0.6510 n         1 MOL     -0.643285
    127 C39        10.0810   -2.0050    1.4730 c3        1 MOL      0.071856
    128 C40        10.2910   -0.5860    1.8460 c         1 MOL      0.676737
    129 O19        10.3780   -0.2450    3.0340 o         1 MOL     -0.586449
    130 C41        11.2730   -2.8200    0.8410 c3        1 MOL      0.198801
    131 C42        12.6050   -2.5900    1.5140 c3        1 MOL     -0.305881
    132 O20        11.4880   -2.3690   -0.5180 oh        1 MOL     -0.618327
    133 H60         9.0210   -2.0720   -0.3490 hn        1 MOL      0.304723
    134 H61         9.9260   -2.4810    2.4450 h1        1 MOL      0.081994
    135 H62        11.0980   -3.8950    0.8310 h1        1 MOL      0.076477
    136 H63        12.2330   -2.8340   -0.9110 ho        1 MOL      0.406615
    137 H64        13.3880   -3.1990    1.0730 hc        1 MOL      0.076132
    138 H65        12.9900   -1.5780    1.3520 hc        1 MOL      0.076132
    139 H66        12.5760   -2.7310    2.6030 hc        1 MOL      0.076132
    140 N12        10.4090    0.1860    0.8310 n         1 MOL     -0.365738
    141 C43        10.5700    1.6400    0.8840 c3        1 MOL     -0.028909
    142 C44         9.7190    2.3950   -0.1610 c         1 MOL      0.588767
    143 O21         9.3820    1.8290   -1.1700 o         1 MOL     -0.503150
    144 C45        12.0630    1.9330    0.6080 c3        1 MOL     -0.158535
    145 C46        12.5780    1.3570   -0.6830 c3        1 MOL     -0.521015
    146 C47        14.0930    1.3170   -0.7310 c3        1 MOL      0.007482
    147 C48        14.6800    0.7640   -2.0540 c3        1 MOL      0.053749
    148 N13        16.1220    0.5790   -1.9030 n4        1 MOL     -0.229505
    149 H67        10.2360   -0.2670   -0.0620 hn        1 MOL      0.262453
    150 H68        10.3850    2.0810    1.8620 h1        1 MOL      0.098234
    151 H69        12.5810    1.5110    1.4660 hc        1 MOL      0.107958
    152 H70        12.2970    3.0020    0.6230 hc        1 MOL      0.107958
    153 H71        12.3920    2.0690   -1.4880 hc        1 MOL      0.201313
    154 H72        12.1560    0.3670   -0.8520 hc        1 MOL      0.201313
    155 H73        14.5850    0.7960    0.0960 hc        1 MOL      0.053138
    156 H74        14.5730    2.2830   -0.6400 hc        1 MOL      0.053138
    157 H75        14.3740    1.3810   -2.9040 hx        1 MOL      0.072248
    158 H76        14.3150   -0.2420   -2.2470 hx        1 MOL      0.072248
    159 H77        16.4600   -0.1240   -2.5420 hn        1 MOL      0.244665
    160 H78        16.6680    1.4160   -2.0040 hn        1 MOL      0.244665
    161 H79        16.3700    0.2240   -0.9860 hn        1 MOL      0.244665
    162 N14         9.3630    3.6970    0.0450 n         1 MOL     -0.577261
    163 C49         8.3870    4.3170   -0.9870 c3        1 MOL      0.218037
    164 C50         7.0260    3.6170   -0.9580 c         1 MOL      0.288637
    165 O22         6.5750    3.0440   -1.9800 o         1 MOL     -0.513276
    166 C51         8.3300    5.8440   -0.8890 c3        1 MOL      0.017688
    167 C52         9.7980    6.3270   -1.1780 c3        1 MOL     -0.283311
    168 C53        10.0000    7.8900   -1.1080 c         1 MOL      0.682115
    169 O23         9.2700    8.5890   -0.3620 o         1 MOL     -0.653021
    170 O24        11.0120    8.3360   -1.7160 o         1 MOL     -0.653021
    171 H80         9.7010    4.2710    0.8000 hn        1 MOL      0.320283
    172 H81         8.8060    4.2260   -1.9950 h1        1 MOL      0.053350
    173 H82         7.9400    6.2830    0.0380 hc        1 MOL      0.033476
    174 H83         7.5900    6.1750   -1.6170 hc        1 MOL      0.033476
    175 H84        10.0520    5.9930   -2.1900 hc        1 MOL      0.064656
    176 H85        10.5120    5.8980   -0.4810 hc        1 MOL      0.064656
    177 N15         6.3580    3.5390    0.1720 n         1 MOL     -0.222270
    178 C54         6.5790    4.1640    1.4990 c3        1 MOL     -0.231727
    179 H86         5.6230    4.2750    2.0110 h1        1 MOL      0.097526
    180 H87         7.2390    3.5310    2.0930 h1        1 MOL      0.097526
    181 H88         7.0360    5.1450    1.3680 h1        1 MOL      0.097526
    182 H89         5.4700    3.0740    0.0960 hn        1 MOL      0.260966
    183 Ca1        -7.2110    4.6320    0.9430 Ca        1 MOL      1.659255
    184 O25        -7.7430    2.9470    3.1380 oh        1 MOL     -0.877931
    185 H90        -7.9500    2.7170    4.0450 ho        1 MOL      0.439395
    186 H91        -8.3660    2.4520    2.6100 ho        1 MOL      0.439395
@<TRIPOS>BOND
     1    1    2 1   
     2    1    4 1   
     3    1    5 1   
     4    1    6 1   
     5    2    3 2   
     6    2    7 1   
     7    7    8 1   
     8    7   15 1   
     9    8    9 1   
    10    8   11 1   
    11    8   16 1   
    12    9   10 2   
    13    9   19 1   
    14   11   12 1   
    15   11   17 1   
    16   11   18 1   
    17   12   13 1   
    18   12   14 1   
    19   19   20 1   
    20   19   28 1   
    21   20   21 1   
    22   20   23 1   
    23   20   29 1   
    24   21   22 2   
    25   21   41 1   
    26   23   24 1   
    27   23   30 1   
    28   23   31 1   
    29   24   25 1   
    30   24   32 1   
    31   24   33 1   
    32   25   26 1   
    33   25   34 1   
    34   25   35 1   
    35   26   27 1   
    36   26   36 1   
    37   26   37 1   
    38   27   38 1   
    39   27   39 1   
    40   27   40 1   
    41   41   42 1   
    42   41   49 1   
    43   42   43 1   
    44   42   45 1   
    45   42   50 1   
    46   43   44 2   
    47   43   53 1   
    48   45   46 1   
    49   45   51 1   
    50   45   52 1   
    51   46   47 1   
    52   46   48 1   
    53   53   54 1   
    54   53   57 1   
    55   54   55 1   
    56   54   58 1   
    57   54   59 1   
    58   55   56 2   
    59   55   60 1   
    60   60   61 1   
    61   60   68 1   
    62   61   62 1   
    63   61   64 1   
    64   61   69 1   
    65   62   63 2   
    66   62   72 1   
    67   64   65 1   
    68   64   70 1   
    69   64   71 1   
    70   65   66 1   
    71   65   67 1   
    72   72   73 1   
    73   72   76 1   
    74   73   74 1   
    75   73   77 1   
    76   73   78 1   
    77   74   75 2   
    78   74   79 1   
    79   79   80 1   
    80   79   86 1   
    81   80   81 1   
    82   80   83 1   
    83   80   87 1   
    84   81   82 2   
    85   81   93 1   
    86   83   84 1   
    87   83   85 1   
    88   83   88 1   
    89   84   90 1   
    90   84   91 1   
    91   84   92 1   
    92   85   89 1   
    93   93   94 1   
    94   93  101 1   
    95   94   95 1   
    96   94   97 1   
    97   94  102 1   
    98   95   96 2   
    99   95  112 1   
   100   97   98 1   
   101   97   99 1   
   102   97  103 1   
   103   98  100 1   
   104   98  104 1   
   105   98  105 1   
   106   99  106 1   
   107   99  107 1   
   108   99  108 1   
   109  100  109 1   
   110  100  110 1   
   111  100  111 1   
   112  112  113 1   
   113  112  119 1   
   114  113  114 1   
   115  113  116 1   
   116  113  120 1   
   117  114  115 2   
   118  114  126 1   
   119  116  117 1   
   120  116  118 1   
   121  116  121 1   
   122  117  123 1   
   123  117  124 1   
   124  117  125 1   
   125  118  122 1   
   126  126  127 1   
   127  126  133 1   
   128  127  128 1   
   129  127  130 1   
   130  127  134 1   
   131  128  129 2   
   132  128  140 1   
   133  130  131 1   
   134  130  132 1   
   135  130  135 1   
   136  131  137 1   
   137  131  138 1   
   138  131  139 1   
   139  132  136 1   
   140  140  141 1   
   141  140  149 1   
   142  141  142 1   
   143  141  144 1   
   144  141  150 1   
   145  142  143 2   
   146  142  162 1   
   147  144  145 1   
   148  144  151 1   
   149  144  152 1   
   150  145  146 1   
   151  145  153 1   
   152  145  154 1   
   153  146  147 1   
   154  146  155 1   
   155  146  156 1   
   156  147  148 1   
   157  147  157 1   
   158  147  158 1   
   159  148  159 1   
   160  148  160 1   
   161  148  161 1   
   162  162  163 1   
   163  162  171 1   
   164  163  164 1   
   165  163  166 1   
   166  163  172 1   
   167  164  165 2   
   168  164  177 1   
   169  166  167 1   
   170  166  173 1   
   171  166  174 1   
   172  167  168 1   
   173  167  175 1   
   174  167  176 1   
   175  168  169 1   
   176  168  170 1   
   177  177  178 1   
   178  177  182 1   
   179  178  179 1   
   180  178  180 1   
   181  178  181 1   
   182  184  185 1   
   183  184  186 1   
@<TRIPOS>SUBSTRUCTURE
     1 MOL         1 TEMP              0 ****  ****    0 ROOT
