@<TRIPOS>MOLECULE
MOL
  181   177     1     0     0
SMALL
resp


@<TRIPOS>ATOM
      1 C1          0.6350    7.5640   -1.9680 c3        1 MOL     -0.394055
      2 C2          1.9830    7.2690   -1.2860 c         1 MOL      0.703938
      3 O1          2.1520    7.5420   -0.1610 o         1 MOL     -0.579031
      4 H1          0.1960    8.4630   -1.5330 hc        1 MOL      0.086659
      5 H2          0.7930    7.7190   -3.0350 hc        1 MOL      0.086659
      6 H3         -0.0410    6.7210   -1.8180 hc        1 MOL      0.086659
      7 N1          2.8270    6.4860   -1.9110 n         1 MOL     -0.440478
      8 C3          4.0960    6.0170   -1.3910 c3        1 MOL     -0.082035
      9 C4          4.2160    4.8040   -0.3710 c         1 MOL      0.710986
     10 O2          3.6720    3.7410   -0.6830 o         1 MOL     -0.557790
     11 C5          4.8840    5.7220   -2.6930 c3        1 MOL     -0.226437
     12 C6          6.3420    5.6600   -2.2330 c         1 MOL      0.731195
     13 O3          6.9070    4.5640   -2.2870 o         1 MOL     -0.736942
     14 O4          6.9710    6.7150   -1.9720 o         1 MOL     -0.736942
     15 H4          2.6360    6.1560   -2.8470 hn        1 MOL      0.254208
     16 H5          4.4690    6.9060   -0.9000 h1        1 MOL      0.062528
     17 H6          4.8730    6.5940   -3.3430 hc        1 MOL      0.045799
     18 H7          4.4730    4.7820   -3.0800 hc        1 MOL      0.045799
     19 N2          4.8760    5.0040    0.7660 n         1 MOL     -0.558426
     20 C7          4.9860    4.0240    1.8330 c3        1 MOL      0.335470
     21 C8          3.6280    3.6650    2.4740 c         1 MOL      0.362571
     22 O5          2.6770    4.4690    2.4890 o         1 MOL     -0.538044
     23 C9          5.9080    4.6510    2.9320 c3        1 MOL     -0.324391
     24 H8          5.3750    5.8740    0.9400 hn        1 MOL      0.310075
     25 H9          5.4680    3.1320    1.4520 h1        1 MOL      0.033657
     26 H10         6.2730    3.9250    3.6530 hc        1 MOL      0.086173
     27 H11         6.7620    5.1180    2.4450 hc        1 MOL      0.086173
     28 H12         5.4260    5.4560    3.4780 hc        1 MOL      0.086173
     29 N3          3.3980    2.5660    3.1480 n         1 MOL     -0.365919
     30 C10         4.3530    1.5040    3.4850 c3        1 MOL      0.171669
     31 C11         4.5940    0.4890    2.3720 c         1 MOL      0.570184
     32 O6          3.7730    0.3460    1.5040 o         1 MOL     -0.471241
     33 C12         3.9250    0.8110    4.7490 c3        1 MOL     -0.433337
     34 C13         2.5640    0.1290    4.7280 c         1 MOL      0.772809
     35 O7          2.0870   -0.3930    5.7790 o         1 MOL     -0.694098
     36 O8          1.9460    0.0810    3.6290 o         1 MOL     -0.694098
     37 H13         2.4660    2.4890    3.5280 hn        1 MOL      0.311078
     38 H14         5.2900    2.0080    3.7360 h1        1 MOL     -0.000584
     39 H15         3.9470    1.5700    5.5240 hc        1 MOL      0.093006
     40 H16         4.6240   -0.0020    4.9300 hc        1 MOL      0.093006
     41 N4          5.6640   -0.3570    2.4540 n         1 MOL     -0.658736
     42 C14         6.0310   -1.4410    1.5210 c3        1 MOL      0.313269
     43 C15         7.1440   -1.1580    0.5200 c         1 MOL      0.464402
     44 O9          7.7580   -0.0580    0.5580 o         1 MOL     -0.480348
     45 H17         6.1280   -0.3570    3.3500 hn        1 MOL      0.307823
     46 H18         5.1440   -1.8530    1.0370 h1        1 MOL     -0.007997
     47 H19         6.3330   -2.2720    2.1540 h1        1 MOL     -0.007997
     48 N5          7.5330   -2.0350   -0.3840 n         1 MOL     -0.570808
     49 C16         6.8310   -3.2450   -0.7670 c3        1 MOL      0.228976
     50 C17         5.5160   -3.1580   -1.5230 c         1 MOL      0.691089
     51 O10         4.8680   -2.0650   -1.5950 o         1 MOL     -0.484908
     52 C18         7.9050   -4.0420   -1.5620 c3        1 MOL     -0.212471
     53 C19         8.2440   -3.5180   -2.9750 c         1 MOL      0.558378
     54 N6          7.9280   -4.1770   -4.0370 n         1 MOL     -0.673860
     55 O11         8.5370   -2.3450   -3.0900 o         1 MOL     -0.470441
     56 H20         8.1940   -1.7330   -1.0880 hn        1 MOL      0.326146
     57 H21         6.5400   -3.8620    0.0860 h1        1 MOL     -0.004538
     58 H22         7.6960   -5.1110   -1.6120 hc        1 MOL      0.043690
     59 H23         8.8740   -3.9730   -1.0880 hc        1 MOL      0.043690
     60 H24         7.4800   -5.0760   -3.9070 hn        1 MOL      0.338141
     61 H25         8.0950   -3.9090   -4.9920 hn        1 MOL      0.338141
     62 N7          4.9100   -4.2800   -2.0030 n         1 MOL     -0.646436
     63 C20         3.9140   -4.2380   -3.0050 c3        1 MOL     -0.227454
     64 C21         2.5140   -4.2570   -2.5770 c         1 MOL      0.472704
     65 O12         1.6370   -4.2970   -3.3970 o         1 MOL     -0.545496
     66 H26         5.1450   -5.2240   -1.7210 hn        1 MOL      0.357528
     67 H27         3.9270   -5.1260   -3.6300 h1        1 MOL      0.151424
     68 H28         4.0500   -3.4060   -3.6950 h1        1 MOL      0.151424
     69 N8          2.3440   -4.4240   -1.2880 n         1 MOL     -0.141388
     70 C22         1.2440   -5.0690   -0.6490 c3        1 MOL      0.149404
     71 C23         0.1030   -4.0590   -0.4760 c         1 MOL      0.457372
     72 O13         0.2510   -2.9960    0.1640 o         1 MOL     -0.572848
     73 C24         1.5310   -5.7370    0.7110 c3        1 MOL      0.285587
     74 C25         0.3100   -6.6000    1.1960 c3        1 MOL     -0.168892
     75 O14         2.6490   -6.6360    0.6630 oh        1 MOL     -0.706621
     76 H29         3.1740   -4.3140   -0.7080 hn        1 MOL      0.117925
     77 H30         0.9340   -5.8300   -1.3570 h1        1 MOL      0.023316
     78 H31         1.7210   -4.9710    1.4570 h1        1 MOL      0.023987
     79 H32         2.6140   -7.2240    1.4310 ho        1 MOL      0.414353
     80 H33         0.3660   -6.8200    2.2650 hc        1 MOL      0.046650
     81 H34        -0.5990   -6.0840    0.8930 hc        1 MOL      0.046650
     82 H35         0.3620   -7.5210    0.6120 hc        1 MOL      0.046650
     83 N9         -1.0300   -4.3500   -1.1450 n         1 MOL     -0.446067
     84 C26        -2.2980   -3.6950   -1.0800 c3        1 MOL     -0.203471
     85 C27        -2.8100   -3.6810    0.3760 c         1 MOL      0.742210
     86 O15        -3.0370   -4.7590    0.9170 o         1 MOL     -0.617437
     87 C28        -3.2380   -4.3510   -2.0440 c3        1 MOL     -0.039232
     88 C29        -4.7000   -3.9090   -1.8940 c3        1 MOL     -0.039249
     89 C30        -2.8690   -4.2460   -3.5300 c3        1 MOL     -0.129228
     90 C31        -5.1780   -2.5100   -2.0730 c3        1 MOL      0.016778
     91 H36        -1.0800   -5.2650   -1.5620 hn        1 MOL      0.275253
     92 H37        -2.1090   -2.6500   -1.3350 h1        1 MOL      0.290113
     93 H38        -3.1760   -5.4350   -1.9560 hc        1 MOL      0.064195
     94 H39        -5.0500   -4.2750   -0.9240 hc        1 MOL      0.018931
     95 H40        -5.2830   -4.4980   -2.6160 hc        1 MOL      0.018931
     96 H41        -2.9370   -3.2280   -3.9090 hc        1 MOL      0.039109
     97 H42        -1.8390   -4.4370   -3.8170 hc        1 MOL      0.039109
     98 H43        -3.4810   -4.8940   -4.1760 hc        1 MOL      0.039109
     99 H44        -6.2440   -2.5470   -2.2630 hc        1 MOL     -0.019020
    100 H45        -5.0620   -1.8090   -1.2560 hc        1 MOL     -0.019020
    101 H46        -4.6880   -2.0370   -2.9300 hc        1 MOL     -0.019020
    102 N10        -3.1170   -2.5170    0.9490 n         1 MOL     -0.250365
    103 C32        -3.7340   -2.2490    2.3000 c3        1 MOL     -0.075532
    104 C33        -4.9730   -1.3790    2.3280 c         1 MOL      0.532162
    105 O16        -5.6850   -1.2640    3.3420 o         1 MOL     -0.532592
    106 C34        -2.6240   -1.6650    3.1500 c3        1 MOL     -0.142959
    107 C35        -1.4010   -2.5330    3.2660 c         1 MOL      0.762539
    108 O17        -0.3440   -2.2030    2.7680 o         1 MOL     -0.703569
    109 O18        -1.4940   -3.5960    3.9080 o         1 MOL     -0.703569
    110 H47        -2.9020   -1.6910    0.4150 hn        1 MOL      0.171027
    111 H48        -3.9270   -3.1440    2.8960 h1        1 MOL      0.106692
    112 H49        -3.0300   -1.5000    4.1460 hc        1 MOL      0.047065
    113 H50        -2.3540   -0.7030    2.7200 hc        1 MOL      0.047065
    114 N11        -5.2990   -0.6800    1.1720 n         1 MOL     -0.629162
    115 C36        -6.4840    0.1740    1.0710 c3        1 MOL      0.783670
    116 C37        -6.2020    1.5550    0.4840 c         1 MOL      0.140195
    117 O19        -6.8820    2.0340   -0.4590 o         1 MOL     -0.454416
    118 C38        -7.6210   -0.5670    0.2850 c3        1 MOL     -0.212305
    119 C39        -9.0990   -0.2410    0.4050 ca        1 MOL      0.031519
    120 C40        -9.5180    0.7250    1.3810 ca        1 MOL     -0.112348
    121 C41       -10.0330   -0.8000   -0.4820 ca        1 MOL     -0.112348
    122 C42       -10.7980    1.2230    1.4160 ca        1 MOL     -0.165882
    123 C43       -11.3610   -0.2960   -0.5330 ca        1 MOL     -0.165882
    124 C44       -11.7160    0.7640    0.3890 ca        1 MOL     -0.104386
    125 H51        -4.5800   -0.6240    0.4650 hn        1 MOL      0.130932
    126 H52        -6.9590    0.2790    2.0440 h1        1 MOL     -0.087926
    127 H53        -7.5680   -1.6380    0.4650 hc        1 MOL      0.069952
    128 H54        -7.4870   -0.4620   -0.7840 hc        1 MOL      0.069952
    129 H55        -8.8810    1.2590    2.0600 ha        1 MOL      0.108803
    130 H56        -9.7660   -1.6110   -1.1500 ha        1 MOL      0.108803
    131 H57       -11.0750    2.0800    2.0110 ha        1 MOL      0.122730
    132 H58       -12.0960   -0.7030   -1.2240 ha        1 MOL      0.122730
    133 H59       -12.7250    1.1290    0.3870 ha        1 MOL      0.084062
    134 N12        -5.1880    2.2150    1.0440 n         1 MOL     -0.187274
    135 C45        -4.6810    3.4340    0.4480 c3        1 MOL      0.114802
    136 C46        -4.4140    3.4030   -1.0480 c         1 MOL      0.190885
    137 O20        -4.7740    4.3410   -1.7910 o         1 MOL     -0.474109
    138 C47        -3.3510    3.6680    1.2780 c3        1 MOL      0.061088
    139 C48        -3.6580    3.0890    2.6410 c3        1 MOL     -0.238513
    140 C49        -4.4380    1.8760    2.2690 c3        1 MOL      0.024293
    141 H60        -5.2970    4.3040    0.6860 h1        1 MOL      0.066622
    142 H61        -2.4750    3.1820    0.8520 hc        1 MOL      0.011374
    143 H62        -3.3300    4.7590    1.3440 hc        1 MOL      0.011374
    144 H63        -2.9340    2.7680    3.3910 hc        1 MOL      0.090314
    145 H64        -4.3480    3.7840    3.1120 hc        1 MOL      0.090314
    146 H65        -3.7920    1.0460    1.9800 h1        1 MOL      0.065809
    147 H66        -5.0970    1.4590    3.0340 h1        1 MOL      0.065809
    148 N13        -3.8340    2.3220   -1.5790 n         1 MOL     -0.023197
    149 C50        -3.5870    2.1760   -2.9820 c3        1 MOL     -0.334228
    150 C51        -4.8310    2.3130   -3.8920 c         1 MOL      0.527112
    151 O21        -4.7980    2.8060   -5.0530 o         1 MOL     -0.566106
    152 C52        -2.8050    0.8240   -3.3160 c3        1 MOL      0.003780
    153 C53        -1.5620    0.4830   -2.4140 c3        1 MOL     -0.127252
    154 C54        -1.7710    0.1710   -0.8980 c         1 MOL      0.194991
    155 O22        -0.8010    0.1010   -0.0700 o         1 MOL     -0.515461
    156 O23        -2.9250   -0.0090   -0.4580 o         1 MOL     -0.515461
    157 H67        -3.7550    1.4700   -1.0420 hn        1 MOL      0.356382
    158 H68        -2.9450    3.0040   -3.2930 h1        1 MOL      0.147783
    159 H69        -2.4510    1.0170   -4.3210 hc        1 MOL      0.029805
    160 H70        -3.5590    0.0390   -3.2950 hc        1 MOL      0.029805
    161 H71        -0.8040    1.2470   -2.4950 hc        1 MOL      0.087950
    162 H72        -1.0700   -0.3680   -2.8880 hc        1 MOL      0.087950
    163 N14        -5.9750    1.8280   -3.4230 n         1 MOL     -0.126268
    164 C55        -7.2320    1.9520   -4.1360 c3        1 MOL     -0.152552
    165 H73        -7.7160    2.8880   -3.8590 h1        1 MOL      0.072154
    166 H74        -7.0440    1.9460   -5.2090 h1        1 MOL      0.072154
    167 H75        -7.8820    1.1170   -3.8750 h1        1 MOL      0.072154
    168 H76        -5.9060    1.3670   -2.5290 hn        1 MOL      0.138853
    169 Ca1         1.1170   -0.7280    1.3000 Ca        1 MOL      1.615666
    170 O24        -0.4050    1.2930    2.2320 oh        1 MOL     -0.812466
    171 H77        -0.0460    2.1790    2.2850 ho        1 MOL      0.396538
    172 H78        -0.8900    1.2760    1.4030 ho        1 MOL      0.396538
    173 O25         2.4480   -0.9680   -0.9620 oh        1 MOL     -0.812466
    174 H79         3.0270   -1.6750   -1.2540 ho        1 MOL      0.396538
    175 H80         2.6710   -0.2290   -1.5240 ho        1 MOL      0.396538
    176 O26         2.5270   -2.7590    2.1450 oh        1 MOL     -0.812466
    177 H81         3.3540   -3.1860    1.9260 ho        1 MOL      0.396538
    178 H82         2.0620   -3.4050    2.6780 ho        1 MOL      0.396538
    179 O27         1.3950    1.8250   -0.1250 oh        1 MOL     -0.812466
    180 H83         1.6900    2.7260   -0.2290 ho        1 MOL      0.396538
    181 H84         0.6630    1.7350   -0.7470 ho        1 MOL      0.396538
@<TRIPOS>BOND
     1    1    2 1   
     2    1    4 1   
     3    1    5 1   
     4    1    6 1   
     5    2    3 2   
     6    2    7 1   
     7    7    8 1   
     8    7   15 1   
     9    8    9 1   
    10    8   11 1   
    11    8   16 1   
    12    9   10 2   
    13    9   19 1   
    14   11   12 1   
    15   11   17 1   
    16   11   18 1   
    17   12   13 1   
    18   12   14 1   
    19   19   20 1   
    20   19   24 1   
    21   20   21 1   
    22   20   23 1   
    23   20   25 1   
    24   21   22 2   
    25   21   29 1   
    26   23   26 1   
    27   23   27 1   
    28   23   28 1   
    29   29   30 1   
    30   29   37 1   
    31   30   31 1   
    32   30   33 1   
    33   30   38 1   
    34   31   32 2   
    35   31   41 1   
    36   33   34 1   
    37   33   39 1   
    38   33   40 1   
    39   34   35 1   
    40   34   36 1   
    41   41   42 1   
    42   41   45 1   
    43   42   43 1   
    44   42   46 1   
    45   42   47 1   
    46   43   44 2   
    47   43   48 1   
    48   48   49 1   
    49   48   56 1   
    50   49   50 1   
    51   49   52 1   
    52   49   57 1   
    53   50   51 2   
    54   50   62 1   
    55   52   53 1   
    56   52   58 1   
    57   52   59 1   
    58   53   54 1   
    59   53   55 2   
    60   54   60 1   
    61   54   61 1   
    62   62   63 1   
    63   62   66 1   
    64   63   64 1   
    65   63   67 1   
    66   63   68 1   
    67   64   65 2   
    68   64   69 1   
    69   69   70 1   
    70   69   76 1   
    71   70   71 1   
    72   70   73 1   
    73   70   77 1   
    74   71   72 2   
    75   71   83 1   
    76   73   74 1   
    77   73   75 1   
    78   73   78 1   
    79   74   80 1   
    80   74   81 1   
    81   74   82 1   
    82   75   79 1   
    83   83   84 1   
    84   83   91 1   
    85   84   85 1   
    86   84   87 1   
    87   84   92 1   
    88   85   86 2   
    89   85  102 1   
    90   87   88 1   
    91   87   89 1   
    92   87   93 1   
    93   88   90 1   
    94   88   94 1   
    95   88   95 1   
    96   89   96 1   
    97   89   97 1   
    98   89   98 1   
    99   90   99 1   
   100   90  100 1   
   101   90  101 1   
   102  102  103 1   
   103  102  110 1   
   104  103  104 1   
   105  103  106 1   
   106  103  111 1   
   107  104  105 2   
   108  104  114 1   
   109  106  107 1   
   110  106  112 1   
   111  106  113 1   
   112  107  108 1   
   113  107  109 1   
   114  114  115 1   
   115  114  125 1   
   116  115  116 1   
   117  115  118 1   
   118  115  126 1   
   119  116  117 2   
   120  116  134 1   
   121  118  119 1   
   122  118  127 1   
   123  118  128 1   
   124  119  120 ar  
   125  119  121 ar  
   126  120  122 ar  
   127  120  129 1   
   128  121  123 ar  
   129  121  130 1   
   130  122  124 ar  
   131  122  131 1   
   132  123  124 ar  
   133  123  132 1   
   134  124  133 1   
   135  134  135 1   
   136  134  140 1   
   137  135  136 1   
   138  135  138 1   
   139  135  141 1   
   140  136  137 2   
   141  136  148 1   
   142  138  139 1   
   143  138  142 1   
   144  138  143 1   
   145  139  140 1   
   146  139  144 1   
   147  139  145 1   
   148  140  146 1   
   149  140  147 1   
   150  148  149 1   
   151  148  157 1   
   152  149  150 1   
   153  149  152 1   
   154  149  158 1   
   155  150  151 2   
   156  150  163 1   
   157  152  153 1   
   158  152  159 1   
   159  152  160 1   
   160  153  154 1   
   161  153  161 1   
   162  153  162 1   
   163  154  155 1   
   164  154  156 1   
   165  163  164 1   
   166  163  168 1   
   167  164  165 1   
   168  164  166 1   
   169  164  167 1   
   170  170  171 1   
   171  170  172 1   
   172  173  174 1   
   173  173  175 1   
   174  176  177 1   
   175  176  178 1   
   176  179  180 1   
   177  179  181 1   
@<TRIPOS>SUBSTRUCTURE
     1 MOL         1 TEMP              0 ****  ****    0 ROOT
