@<TRIPOS>MOLECULE
MOL
  195   189     1     0     0
SMALL
resp


@<TRIPOS>ATOM
      1 C1          4.5990   -1.9520   -3.7910 c3        1 MOL     -0.440108
      2 C2          3.8860   -2.2330   -2.4900 c         1 MOL      0.775790
      3 O1          3.0900   -1.3980   -2.0870 o         1 MOL     -0.514328
      4 H1          4.9290   -2.8910   -4.2330 hc        1 MOL      0.098469
      5 H2          3.9180   -1.4470   -4.4770 hc        1 MOL      0.098469
      6 H3          5.4640   -1.3150   -3.6020 hc        1 MOL      0.098469
      7 N1          4.0770   -3.3690   -1.8310 n         1 MOL     -0.681354
      8 C3          3.5950   -3.4770   -0.4080 c3        1 MOL     -0.180288
      9 C4          2.0710   -3.4450   -0.1830 c         1 MOL      0.837945
     10 O2          1.6100   -3.0290    0.8680 o         1 MOL     -0.582237
     11 C5          4.3510   -2.5670    0.5370 c3        1 MOL     -0.326480
     12 C6          5.8430   -2.6730    0.3580 c         1 MOL      0.717672
     13 O3          6.5450   -1.7310   -0.0650 o         1 MOL     -0.702745
     14 O4          6.4070   -3.7540    0.6600 o         1 MOL     -0.702745
     15 H4          4.6200   -4.0840   -2.2940 hn        1 MOL      0.331194
     16 H5          3.8490   -4.5150   -0.1660 h1        1 MOL      0.128489
     17 H6          4.0910   -2.8540    1.5580 hc        1 MOL      0.160959
     18 H7          3.9840   -1.5660    0.3080 hc        1 MOL      0.160959
     19 N2          1.3160   -3.8380   -1.2480 n         1 MOL     -0.678990
     20 C7         -0.1090   -3.8480   -1.3560 c3        1 MOL     -0.297639
     21 C8         -0.6810   -4.8680   -0.4330 c         1 MOL      0.767054
     22 O5          0.0410   -5.7820   -0.0870 o         1 MOL     -0.609281
     23 C9         -0.5670   -3.9490   -2.8920 c3        1 MOL      0.435723
     24 C10        -0.5080   -5.4010   -3.4000 c3        1 MOL      0.181015
     25 C11         0.2690   -3.0060   -3.7660 c3        1 MOL     -0.523350
     26 C12        -1.4570   -5.6100   -4.5920 c3        1 MOL     -0.070281
     27 H8          1.9100   -4.1450   -1.9940 hn        1 MOL      0.380532
     28 H9         -0.3530   -2.8460   -0.9930 h1        1 MOL      0.225149
     29 H10        -1.6090   -3.6290   -2.9820 hc        1 MOL      0.006794
     30 H11        -0.7690   -6.1770   -2.6740 hc        1 MOL     -0.073398
     31 H12         0.5390   -5.5760   -3.6680 hc        1 MOL     -0.073398
     32 H13         0.4990   -2.0810   -3.2240 hc        1 MOL      0.113380
     33 H14         1.2590   -3.4050   -3.9760 hc        1 MOL      0.113380
     34 H15        -0.2350   -2.7390   -4.6960 hc        1 MOL      0.113380
     35 H16        -1.1110   -4.9770   -5.4130 hc        1 MOL     -0.005669
     36 H17        -1.5100   -6.6420   -4.9450 hc        1 MOL     -0.005669
     37 H18        -2.4320   -5.2750   -4.2580 hc        1 MOL     -0.005669
     38 N3         -1.9220   -4.7730    0.0140 n         1 MOL     -0.641941
     39 C13        -3.0050   -3.8220   -0.3390 c3        1 MOL     -0.027721
     40 C14        -3.8230   -3.1790    0.8550 c         1 MOL      0.486275
     41 O6         -4.5190   -2.2220    0.6820 o         1 MOL     -0.382686
     42 C15        -4.0890   -4.3950   -1.3300 c3        1 MOL     -0.009399
     43 C16        -4.8310   -5.6140   -0.8610 c         1 MOL      0.708420
     44 O7         -4.2690   -6.4660   -0.1600 o         1 MOL     -0.709260
     45 O8         -6.0130   -5.7920   -1.3020 o         1 MOL     -0.709260
     46 H19        -2.2740   -5.5680    0.5320 hn        1 MOL      0.326074
     47 H20        -2.5390   -3.0100   -0.9110 h1        1 MOL      0.016679
     48 H21        -3.6680   -4.5480   -2.3330 hc        1 MOL     -0.008553
     49 H22        -4.8640   -3.6640   -1.5640 hc        1 MOL     -0.008553
     50 N4         -3.7090   -3.8000    2.0300 n         1 MOL     -0.359879
     51 C17        -4.2580   -3.1710    3.2810 c3        1 MOL     -0.172677
     52 C18        -5.7800   -3.1750    3.2920 c         1 MOL      0.518446
     53 O9         -6.4370   -4.1940    3.0790 o         1 MOL     -0.496193
     54 H23        -3.1090   -4.6010    2.1550 hn        1 MOL      0.319932
     55 H24        -3.8770   -2.1450    3.2520 h1        1 MOL      0.096249
     56 H25        -3.8910   -3.6050    4.2050 h1        1 MOL      0.096249
     57 N5         -6.3100   -1.9630    3.5650 n         1 MOL     -0.384312
     58 C19        -7.6750   -1.7000    3.5570 c3        1 MOL     -0.035072
     59 C20        -8.2060   -1.5040    2.0970 c         1 MOL      0.377367
     60 O10        -9.4540   -1.4940    1.9610 o         1 MOL     -0.530984
     61 C21        -8.0220   -0.3890    4.3400 c3        1 MOL     -0.119569
     62 C22        -7.4620    0.8400    3.6860 c         1 MOL      0.823864
     63 O11        -7.9880    1.2170    2.5930 o         1 MOL     -0.700736
     64 O12        -6.6260    1.4180    4.2910 o         1 MOL     -0.700736
     65 H26        -5.6590   -1.2470    3.8410 hn        1 MOL      0.260836
     66 H27        -8.2160   -2.4950    4.0780 h1        1 MOL      0.086385
     67 H28        -7.6450   -0.3930    5.3630 hc        1 MOL      0.018414
     68 H29        -9.0810   -0.1530    4.4470 hc        1 MOL      0.018414
     69 N6         -7.2920   -1.3410    1.1090 n         1 MOL      0.034260
     70 C23        -7.6210   -1.3260   -0.3610 c3        1 MOL     -0.331318
     71 C24        -7.9290    0.0300   -0.9510 c         1 MOL      0.561289
     72 O13        -7.8970    0.2340   -2.1680 o         1 MOL     -0.611195
     73 H30        -6.3150   -1.3720    1.3680 hn        1 MOL      0.063010
     74 H31        -8.5220   -1.9390   -0.4900 h1        1 MOL      0.127803
     75 H32        -6.8330   -1.8300   -0.9020 h1        1 MOL      0.127803
     76 N7         -7.9940    1.0270   -0.1180 n         1 MOL      0.001553
     77 C25        -8.3680    2.4310   -0.4670 c3        1 MOL      0.043089
     78 C26        -7.4000    3.2550   -1.4570 c         1 MOL      0.345838
     79 O14        -7.8270    4.2900   -2.0020 o         1 MOL     -0.501392
     80 C27        -9.8420    2.4390   -0.9020 c3        1 MOL      0.138580
     81 C28       -10.9440    1.8960   -0.0480 c3        1 MOL     -0.170602
     82 C29       -11.1000    2.7580    1.1470 c         1 MOL      0.664089
     83 N8        -10.5620    2.4680    2.3430 n         1 MOL     -0.782829
     84 O15       -11.7890    3.7550    1.0500 o         1 MOL     -0.632282
     85 H33        -8.1240    0.7730    0.8470 hn        1 MOL     -0.129401
     86 H34        -8.3580    3.0310    0.4480 h1        1 MOL      0.070069
     87 H35        -9.9310    1.7560   -1.7550 hc        1 MOL     -0.020677
     88 H36       -10.1240    3.4340   -1.2440 hc        1 MOL     -0.020677
     89 H37       -10.7050    0.8850    0.2870 hc        1 MOL      0.048322
     90 H38       -11.9310    1.9640   -0.4960 hc        1 MOL      0.048322
     91 H39        -9.8160    1.7910    2.2600 hn        1 MOL      0.355045
     92 H40       -10.5520    3.2520    2.9820 hn        1 MOL      0.355045
     93 N9         -6.1530    2.8120   -1.5080 n         1 MOL     -0.095853
     94 C30        -5.1140    3.3590   -2.4380 c3        1 MOL     -0.261928
     95 C31        -3.7180    3.1070   -1.8780 c         1 MOL      0.586152
     96 O16        -2.9200    4.0140   -1.9310 o         1 MOL     -0.514596
     97 C32        -5.2310    2.8040   -3.9470 c3        1 MOL      0.207532
     98 C33        -4.9850    1.3020   -4.1850 c3        1 MOL     -0.165726
     99 C34        -6.5950    3.1960   -4.5060 c3        1 MOL     -0.165726
    100 H41        -5.8850    2.0800   -0.8690 hn        1 MOL      0.092297
    101 H42        -5.1760    4.4420   -2.4150 h1        1 MOL      0.145876
    102 H43        -4.6070    3.4260   -4.5850 hc        1 MOL     -0.007152
    103 H44        -5.7950    0.6830   -3.7980 hc        1 MOL      0.034686
    104 H45        -5.0110    1.2090   -5.2680 hc        1 MOL      0.034686
    105 H46        -3.9770    0.9470   -3.9450 hc        1 MOL      0.034686
    106 H47        -7.4410    2.6910   -4.0500 hc        1 MOL      0.034686
    107 H48        -6.7210    4.2760   -4.4380 hc        1 MOL      0.034686
    108 H49        -6.6380    2.9760   -5.5780 hc        1 MOL      0.034686
    109 N10        -3.3830    1.9120   -1.3410 n         1 MOL     -0.385530
    110 C35        -2.1190    1.3410   -1.1600 c3        1 MOL     -0.079253
    111 C36        -1.2530    2.0240   -0.1120 c         1 MOL      0.664658
    112 O17        -1.6900    2.5170    0.9090 o         1 MOL     -0.524822
    113 C37        -2.3370   -0.2000   -0.9420 c3        1 MOL      0.131215
    114 C38        -3.1350   -0.8460   -2.0280 c         1 MOL      0.516912
    115 N11        -4.4060   -0.9470   -1.7620 n         1 MOL     -0.541779
    116 O18        -2.5700   -1.2960   -3.0000 o         1 MOL     -0.573987
    117 H50        -4.1750    1.2780   -1.3510 hn        1 MOL      0.210235
    118 H51        -1.4490    1.2580   -2.0210 h1        1 MOL      0.072312
    119 H52        -2.7470   -0.4500    0.0360 hc        1 MOL     -0.038309
    120 H53        -1.4030   -0.7400   -0.8760 hc        1 MOL     -0.038309
    121 H54        -4.7120   -0.5530   -0.8890 hn        1 MOL      0.323181
    122 H55        -5.0580   -1.4620   -2.3320 hn        1 MOL      0.323181
    123 N12         0.0920    1.8620   -0.2050 n         1 MOL     -0.599407
    124 C39         1.1190    2.1410    0.8130 c3        1 MOL      0.121369
    125 C40         2.4180    2.8270    0.2190 c         1 MOL      0.709277
    126 O19         2.8910    2.4680   -0.8250 o         1 MOL     -0.585330
    127 C41         1.4520    0.8020    1.5620 c3        1 MOL     -0.051182
    128 C42         2.5290    0.8920    2.6160 ca        1 MOL      0.022548
    129 C43         3.8590    0.6640    2.2000 ca        1 MOL     -0.140917
    130 C44         2.2370    1.0470    3.9930 ca        1 MOL     -0.140917
    131 C45         4.9240    0.8000    3.1700 ca        1 MOL     -0.322141
    132 C46         3.2170    0.9200    4.9810 ca        1 MOL     -0.322141
    133 C47         4.6060    0.8820    4.5420 ca        1 MOL      0.413210
    134 O20         5.5400    1.1560    5.4430 oh        1 MOL     -0.584345
    135 H56         0.5280    1.6280   -1.0880 hn        1 MOL      0.292428
    136 H57         0.7380    2.7620    1.6350 h1        1 MOL      0.048066
    137 H58         1.7730    0.0380    0.8390 hc        1 MOL      0.056675
    138 H59         0.5660    0.4370    2.0790 hc        1 MOL      0.056675
    139 H60         4.0610    0.5010    1.1580 ha        1 MOL      0.132538
    140 H61         1.1980    1.2190    4.2470 ha        1 MOL      0.132538
    141 H62         5.9720    0.8050    2.9030 ha        1 MOL      0.169800
    142 H63         2.9340    1.0100    6.0210 ha        1 MOL      0.169800
    143 H64         6.4070    1.3240    5.0730 ho        1 MOL      0.437245
    144 N13         2.9210    3.8180    0.9040 n         1 MOL     -0.748744
    145 C48         3.9460    4.7430    0.3810 c3        1 MOL      0.381554
    146 C49         5.0260    5.0830    1.3950 c         1 MOL      0.568284
    147 O21         4.7700    5.8530    2.3200 o         1 MOL     -0.579854
    148 C50         3.3070    6.0910   -0.0350 c3        1 MOL      0.285152
    149 C51         4.3470    7.0910   -0.7140 c3        1 MOL     -0.335702
    150 C52         3.6460    8.3590   -1.2340 c         1 MOL      0.697867
    151 O22         2.5340    8.2780   -1.7850 o         1 MOL     -0.662809
    152 O23         4.2090    9.4880   -0.9560 o         1 MOL     -0.662809
    153 H65         2.4780    4.1380    1.7580 hn        1 MOL      0.323074
    154 H66         4.3510    4.3330   -0.5480 h1        1 MOL     -0.098550
    155 H67         2.7990    6.4850    0.8470 hc        1 MOL     -0.058168
    156 H68         2.4850    5.8740   -0.7180 hc        1 MOL     -0.058168
    157 H69         5.0350    6.5560   -1.3710 hc        1 MOL      0.046677
    158 H70         5.0290    7.3410    0.0990 hc        1 MOL      0.046677
    159 N14         6.1820    4.4340    1.2580 n         1 MOL     -0.528385
    160 C53         6.5700    3.3710    0.3560 c3        1 MOL      0.055643
    161 C54         6.8580    3.8560   -1.1040 c         1 MOL      0.435294
    162 O24         7.4430    4.8870   -1.3230 o         1 MOL     -0.533037
    163 C55         7.8230    2.6650    0.9770 c3        1 MOL     -0.024849
    164 C56         8.1080    1.2370    0.4750 c3        1 MOL     -0.207286
    165 C57         9.2930    0.5480    1.0890 c         1 MOL      0.677412
    166 O25         9.6270    0.8910    2.2600 o         1 MOL     -0.683316
    167 O26         9.8790   -0.3930    0.4780 o         1 MOL     -0.683316
    168 H71         6.8980    4.7180    1.9210 hn        1 MOL      0.293487
    169 H72         5.7790    2.6210    0.3320 h1        1 MOL      0.045786
    170 H73         7.7240    2.6050    2.0650 hc        1 MOL      0.028253
    171 H74         8.6680    3.3060    0.7660 hc        1 MOL      0.028253
    172 H75         8.1140    1.1940   -0.6080 hc        1 MOL      0.031282
    173 H76         7.2600    0.6690    0.8500 hc        1 MOL      0.031282
    174 N15         6.4520    3.0660   -2.0620 n         1 MOL     -0.019820
    175 C58         6.7020    3.1970   -3.4580 c3        1 MOL     -0.246705
    176 H77         6.8650    2.2110   -3.8920 h1        1 MOL      0.089909
    177 H78         5.8440    3.6670   -3.9390 h1        1 MOL      0.089909
    178 H79         7.5890    3.8130   -3.6130 h1        1 MOL      0.089909
    179 H80         5.9300    2.2410   -1.7660 hn        1 MOL      0.173482
    180 Ca1         8.9350   -2.8180   -0.0350 Ca        1 MOL      1.722659
    181 O27        11.1940   -3.4860    1.5800 oh        1 MOL     -0.864163
    182 H81        11.6130   -3.0320    2.3170 ho        1 MOL      0.399499
    183 H82        11.8320   -4.1250    1.2880 ho        1 MOL      0.399499
    184 O28         8.4730   -2.2870    2.6650 oh        1 MOL     -0.864163
    185 H83         7.7560   -2.7260    3.1230 ho        1 MOL      0.399499
    186 H84         8.9970   -1.8900    3.3580 ho        1 MOL      0.399499
    187 O29        11.1470   -3.3650   -1.5310 oh        1 MOL     -0.864163
    188 H85        11.7240   -2.6310   -1.7370 ho        1 MOL      0.399499
    189 H86        11.6840   -4.1410   -1.6810 ho        1 MOL      0.399499
    190 O30         9.3770   -5.3460    0.5660 oh        1 MOL     -0.864163
    191 H87         8.7210   -5.9280    0.9430 ho        1 MOL      0.399499
    192 H88        10.1220   -5.9120    0.3580 ho        1 MOL      0.399499
    193 O31         8.7850   -1.2460   -2.4000 oh        1 MOL     -0.864163
    194 H89         9.2270   -0.4810   -2.7740 ho        1 MOL      0.399499
    195 H90         8.0840   -1.4440   -3.0340 ho        1 MOL      0.399499
@<TRIPOS>BOND
     1    1    2 1   
     2    1    4 1   
     3    1    5 1   
     4    1    6 1   
     5    2    3 2   
     6    2    7 1   
     7    7    8 1   
     8    7   15 1   
     9    8    9 1   
    10    8   11 1   
    11    8   16 1   
    12    9   10 2   
    13    9   19 1   
    14   11   12 1   
    15   11   17 1   
    16   11   18 1   
    17   12   13 1   
    18   12   14 1   
    19   19   20 1   
    20   19   27 1   
    21   20   21 1   
    22   20   23 1   
    23   20   28 1   
    24   21   22 2   
    25   21   38 1   
    26   23   24 1   
    27   23   25 1   
    28   23   29 1   
    29   24   26 1   
    30   24   30 1   
    31   24   31 1   
    32   25   32 1   
    33   25   33 1   
    34   25   34 1   
    35   26   35 1   
    36   26   36 1   
    37   26   37 1   
    38   38   39 1   
    39   38   46 1   
    40   39   40 1   
    41   39   42 1   
    42   39   47 1   
    43   40   41 2   
    44   40   50 1   
    45   42   43 1   
    46   42   48 1   
    47   42   49 1   
    48   43   44 1   
    49   43   45 1   
    50   50   51 1   
    51   50   54 1   
    52   51   52 1   
    53   51   55 1   
    54   51   56 1   
    55   52   53 2   
    56   52   57 1   
    57   57   58 1   
    58   57   65 1   
    59   58   59 1   
    60   58   61 1   
    61   58   66 1   
    62   59   60 2   
    63   59   69 1   
    64   61   62 1   
    65   61   67 1   
    66   61   68 1   
    67   62   63 1   
    68   62   64 1   
    69   69   70 1   
    70   69   73 1   
    71   70   71 1   
    72   70   74 1   
    73   70   75 1   
    74   71   72 2   
    75   71   76 1   
    76   76   77 1   
    77   76   85 1   
    78   77   78 1   
    79   77   80 1   
    80   77   86 1   
    81   78   79 2   
    82   78   93 1   
    83   80   81 1   
    84   80   87 1   
    85   80   88 1   
    86   81   82 1   
    87   81   89 1   
    88   81   90 1   
    89   82   83 1   
    90   82   84 2   
    91   83   91 1   
    92   83   92 1   
    93   93   94 1   
    94   93  100 1   
    95   94   95 1   
    96   94   97 1   
    97   94  101 1   
    98   95   96 2   
    99   95  109 1   
   100   97   98 1   
   101   97   99 1   
   102   97  102 1   
   103   98  103 1   
   104   98  104 1   
   105   98  105 1   
   106   99  106 1   
   107   99  107 1   
   108   99  108 1   
   109  109  110 1   
   110  109  117 1   
   111  110  111 1   
   112  110  113 1   
   113  110  118 1   
   114  111  112 2   
   115  111  123 1   
   116  113  114 1   
   117  113  119 1   
   118  113  120 1   
   119  114  115 1   
   120  114  116 2   
   121  115  121 1   
   122  115  122 1   
   123  123  124 1   
   124  123  135 1   
   125  124  125 1   
   126  124  127 1   
   127  124  136 1   
   128  125  126 2   
   129  125  144 1   
   130  127  128 1   
   131  127  137 1   
   132  127  138 1   
   133  128  129 ar  
   134  128  130 ar  
   135  129  131 ar  
   136  129  139 1   
   137  130  132 ar  
   138  130  140 1   
   139  131  133 ar  
   140  131  141 1   
   141  132  133 ar  
   142  132  142 1   
   143  133  134 1   
   144  134  143 1   
   145  144  145 1   
   146  144  153 1   
   147  145  146 1   
   148  145  148 1   
   149  145  154 1   
   150  146  147 2   
   151  146  159 1   
   152  148  149 1   
   153  148  155 1   
   154  148  156 1   
   155  149  150 1   
   156  149  157 1   
   157  149  158 1   
   158  150  151 1   
   159  150  152 1   
   160  159  160 1   
   161  159  168 1   
   162  160  161 1   
   163  160  163 1   
   164  160  169 1   
   165  161  162 2   
   166  161  174 1   
   167  163  164 1   
   168  163  170 1   
   169  163  171 1   
   170  164  165 1   
   171  164  172 1   
   172  164  173 1   
   173  165  166 1   
   174  165  167 1   
   175  174  175 1   
   176  174  179 1   
   177  175  176 1   
   178  175  177 1   
   179  175  178 1   
   180  181  182 1   
   181  181  183 1   
   182  184  185 1   
   183  184  186 1   
   184  187  188 1   
   185  187  189 1   
   186  190  191 1   
   187  190  192 1   
   188  193  194 1   
   189  193  195 1   
@<TRIPOS>SUBSTRUCTURE
     1 MOL         1 TEMP              0 ****  ****    0 ROOT
