@<TRIPOS>MOLECULE
MOL
  188   182     1     0     0
SMALL
resp


@<TRIPOS>ATOM
      1 C1         -5.9240   -2.2480    3.8510 c3        1 MOL     -0.329705
      2 C2         -5.9740   -1.7320    2.3710 c         1 MOL      0.638319
      3 O1         -5.1770   -0.9140    2.0000 o         1 MOL     -0.549889
      4 H1         -6.9290   -2.2370    4.2740 hc        1 MOL      0.082255
      5 H2         -5.5340   -3.2660    3.8680 hc        1 MOL      0.082255
      6 H3         -5.2760   -1.6000    4.4410 hc        1 MOL      0.082255
      7 N1         -6.9070   -2.2790    1.5860 n         1 MOL     -0.660942
      8 C3         -7.1510   -2.2130    0.1390 c3        1 MOL      0.200838
      9 C4         -7.1200   -0.7970   -0.4750 c         1 MOL      0.424843
     10 O2         -6.8220   -0.6120   -1.6790 o         1 MOL     -0.484658
     11 C5         -6.2220   -3.2340   -0.5650 c3        1 MOL     -0.090142
     12 C6         -6.8320   -3.9240   -1.8220 c         1 MOL      0.593809
     13 O3         -7.9960   -3.6080   -2.1210 o         1 MOL     -0.635791
     14 O4         -6.0530   -4.6940   -2.4690 o         1 MOL     -0.635791
     15 H4         -7.5020   -2.9170    2.0830 hn        1 MOL      0.337017
     16 H5         -8.1860   -2.5300   -0.0030 h1        1 MOL     -0.012428
     17 H6         -5.9710   -4.0200    0.1450 hc        1 MOL      0.041755
     18 H7         -5.2810   -2.7430   -0.8180 hc        1 MOL      0.041755
     19 N2         -7.4090    0.2730    0.2670 n         1 MOL     -0.332382
     20 C7         -7.6300    1.6210   -0.1920 c3        1 MOL      0.026332
     21 C8         -6.3890    2.5290   -0.3530 c         1 MOL      0.585566
     22 O5         -6.4940    3.7690   -0.3800 o         1 MOL     -0.561299
     23 C9         -8.6640    2.0810    0.7950 c3        1 MOL     -0.127383
     24 C10       -10.0560    1.3940    0.6860 c3        1 MOL      0.058628
     25 C11       -10.9870    1.4180    1.9030 c3        1 MOL     -0.090313
     26 C12       -12.3940    1.1390    1.4200 c3        1 MOL      0.039849
     27 N3        -12.6760   -0.2440    0.9680 n4        1 MOL     -0.373313
     28 H8         -7.5240    0.1130    1.2510 hn        1 MOL      0.214883
     29 H9         -8.0090    1.5710   -1.2110 h1        1 MOL      0.090851
     30 H10        -8.7440    3.1580    0.6640 hc        1 MOL      0.058154
     31 H11        -8.3360    1.9570    1.8250 hc        1 MOL      0.058154
     32 H12        -9.8770    0.3690    0.3460 hc        1 MOL      0.008738
     33 H13       -10.6080    1.7940   -0.1690 hc        1 MOL      0.008738
     34 H14       -10.9120    2.4170    2.3410 hc        1 MOL      0.053037
     35 H15       -10.6580    0.6930    2.6400 hc        1 MOL      0.053037
     36 H16       -12.4980    1.7890    0.5470 hx        1 MOL      0.080753
     37 H17       -13.1380    1.5150    2.1280 hx        1 MOL      0.080753
     38 H18       -12.2860   -0.9520    1.5730 hn        1 MOL      0.304161
     39 H19       -13.6780   -0.2990    0.9630 hn        1 MOL      0.304161
     40 H20       -12.3400   -0.3860    0.0280 hn        1 MOL      0.304161
     41 N4         -5.1780    1.8710   -0.4850 n         1 MOL     -0.446571
     42 C13        -3.8380    2.4530   -0.5430 c3        1 MOL      0.037282
     43 C14        -3.4190    2.5370   -2.0000 c         1 MOL      0.503284
     44 O6         -3.7250    1.6030   -2.7640 o         1 MOL     -0.455438
     45 C15        -2.8440    1.6230    0.3600 c3        1 MOL     -0.051149
     46 C16        -1.5610    2.4170    0.5830 c         1 MOL      0.573332
     47 O7         -0.9170    2.7670   -0.4000 o         1 MOL     -0.670986
     48 O8         -1.1790    2.8460    1.6610 o         1 MOL     -0.670986
     49 H21        -5.2750    0.8800   -0.6770 hn        1 MOL      0.257029
     50 H22        -3.8580    3.4380   -0.0660 h1        1 MOL      0.079482
     51 H23        -2.5590    0.7710   -0.2590 hc        1 MOL      0.057006
     52 H24        -3.3670    1.2840    1.2450 hc        1 MOL      0.057006
     53 N5         -2.8070    3.6410   -2.4580 n         1 MOL     -0.412522
     54 C17        -2.1760    3.7110   -3.7840 c3        1 MOL     -0.250533
     55 C18        -1.1790    2.6440   -4.0910 c         1 MOL      0.472480
     56 O9         -0.9440    2.4150   -5.2520 o         1 MOL     -0.513089
     57 H25        -2.5640    4.3490   -1.7800 hn        1 MOL      0.292091
     58 H26        -1.8120    4.7310   -3.8310 h1        1 MOL      0.152167
     59 H27        -2.9860    3.5600   -4.4970 h1        1 MOL      0.152167
     60 N6         -0.5410    2.0810   -3.0650 n         1 MOL     -0.264246
     61 C19         0.3350    0.9310   -3.2170 c3        1 MOL     -0.126017
     62 C20        -0.4650   -0.4000   -3.3310 c         1 MOL      0.512387
     63 O10         0.1000   -1.4450   -3.5100 o         1 MOL     -0.503135
     64 C21         1.3060    0.9830   -2.0100 c3        1 MOL     -0.164240
     65 C22         2.1680    2.1710   -2.1600 c         1 MOL      0.800696
     66 N7          3.0520    2.1700   -3.1550 n         1 MOL     -0.830465
     67 O11         2.0230    3.0760   -1.3510 o         1 MOL     -0.738292
     68 H28        -0.7600    2.3950   -2.1330 hn        1 MOL      0.220975
     69 H29         0.9200    1.0910   -4.1190 h1        1 MOL      0.088725
     70 H30         1.9980    0.1480   -1.9210 hc        1 MOL      0.100125
     71 H31         0.7130    1.0140   -1.1050 hc        1 MOL      0.100125
     72 H32         3.0110    1.4760   -3.8960 hn        1 MOL      0.385567
     73 H33         3.6630    2.9680   -3.2280 hn        1 MOL      0.385567
     74 N8         -1.7730   -0.4440   -3.1620 n         1 MOL     -0.255413
     75 C23        -2.5650   -1.6540   -3.0860 c3        1 MOL     -0.192307
     76 C24        -2.3730   -2.5270   -1.8150 c         1 MOL      0.576174
     77 O12        -2.7440   -3.6450   -1.7750 o         1 MOL     -0.486021
     78 H34        -2.2150    0.4640   -3.0780 hn        1 MOL      0.215804
     79 H35        -2.4680   -2.3160   -3.9500 h1        1 MOL      0.145532
     80 H36        -3.5870   -1.2830   -3.0420 h1        1 MOL      0.145532
     81 N9         -1.6800   -1.9960   -0.7770 n         1 MOL     -0.499783
     82 C25        -1.0880   -2.8050    0.3920 c3        1 MOL      0.019938
     83 C26         0.2660   -2.2560    0.7010 c         1 MOL      0.366944
     84 O13         0.4240   -1.0340    0.7190 o         1 MOL     -0.411118
     85 C27        -2.1160   -2.8880    1.5240 c3        1 MOL     -0.057252
     86 C28        -1.5010   -3.0890    2.9430 ca        1 MOL      0.070287
     87 C29        -1.2500   -4.4000    3.4130 ca        1 MOL     -0.222243
     88 C30        -1.1200   -1.9300    3.6380 ca        1 MOL     -0.222243
     89 C31        -0.7410   -4.5680    4.7070 ca        1 MOL     -0.157094
     90 C32        -0.5030   -2.1700    4.8780 ca        1 MOL     -0.157094
     91 C33        -0.3350   -3.4060    5.4550 ca        1 MOL      0.183811
     92 O14         0.3080   -3.6750    6.5920 oh        1 MOL     -0.414822
     93 H37        -1.5370   -1.0030   -0.7540 hn        1 MOL      0.255095
     94 H38        -1.0000   -3.8420    0.0710 h1        1 MOL      0.103330
     95 H39        -2.7430   -3.7530    1.2980 hc        1 MOL      0.079208
     96 H40        -2.6570   -1.9410    1.6140 hc        1 MOL      0.079208
     97 H41        -1.6420   -5.2140    2.8310 ha        1 MOL      0.156942
     98 H42        -1.3030   -0.9240    3.2830 ha        1 MOL      0.156942
     99 H43        -0.5860   -5.5640    5.1030 ha        1 MOL      0.129998
    100 H44        -0.2820   -1.3420    5.5210 ha        1 MOL      0.129998
    101 H45         0.3650   -2.7820    6.9450 ho        1 MOL      0.341656
    102 N10         1.2450   -3.1130    0.9620 n         1 MOL     -0.340512
    103 C34         2.6260   -2.7050    1.0120 c3        1 MOL      0.042001
    104 C35         3.2230   -2.4200   -0.3190 c         1 MOL      0.264790
    105 O15         4.0710   -1.5280   -0.5020 o         1 MOL     -0.436185
    106 C36         3.4030   -3.6850    1.8580 c3        1 MOL      0.054648
    107 C37         2.8250   -3.7330    3.2740 c3        1 MOL      0.102653
    108 C38         4.9130   -3.4420    1.8450 c3        1 MOL     -0.163556
    109 C39         2.8650   -2.4050    4.0710 c3        1 MOL     -0.228325
    110 H46         1.0590   -4.0960    0.8500 hn        1 MOL      0.257780
    111 H47         2.6380   -1.7090    1.4570 h1        1 MOL      0.081416
    112 H48         3.2690   -4.6760    1.4200 hc        1 MOL     -0.008902
    113 H49         3.4070   -4.5520    3.6890 hc        1 MOL     -0.017420
    114 H50         1.7960   -4.0850    3.2690 hc        1 MOL     -0.017420
    115 H51         5.5300   -4.0860    2.4590 hc        1 MOL      0.066552
    116 H52         5.3320   -3.4580    0.8370 hc        1 MOL      0.066552
    117 H53         5.0410   -2.4320    2.2370 hc        1 MOL      0.066552
    118 H54         2.6000   -2.4400    5.1370 hc        1 MOL      0.058646
    119 H55         3.8510   -1.9570    3.9690 hc        1 MOL      0.058646
    120 H56         2.0770   -1.7800    3.6680 hc        1 MOL      0.058646
    121 N11         2.8100   -3.1570   -1.3910 n         1 MOL     -0.081664
    122 C40         3.1960   -2.9650   -2.7660 c3        1 MOL     -0.165079
    123 C41         4.6810   -3.2040   -2.9980 c         1 MOL      0.375335
    124 O16         5.2200   -2.8110   -4.0580 o         1 MOL     -0.495753
    125 C42         2.4620   -3.8900   -3.7110 c3        1 MOL      0.246859
    126 O17         1.1010   -3.8430   -3.3560 oh        1 MOL     -0.599924
    127 H57         2.0950   -3.8540   -1.2410 hn        1 MOL      0.187543
    128 H58         2.8550   -1.9600   -3.0030 h1        1 MOL      0.094439
    129 H59         2.8560   -4.8950   -3.6550 h1        1 MOL      0.035210
    130 H60         2.5180   -3.5100   -4.7380 h1        1 MOL      0.035210
    131 H61         0.8690   -2.9090   -3.3970 ho        1 MOL      0.380999
    132 N12         5.3670   -3.7540   -1.9720 n         1 MOL     -0.260471
    133 C43         6.8520   -3.8050   -1.8320 c3        1 MOL      0.288223
    134 C44         7.5450   -2.3970   -1.8580 c         1 MOL      0.335022
    135 O18         8.7350   -2.2560   -2.3210 o         1 MOL     -0.528037
    136 C45         7.4540   -4.9130   -2.7170 c3        1 MOL     -0.378894
    137 H62         4.8240   -4.1090   -1.2010 hn        1 MOL      0.145110
    138 H63         7.0000   -4.1650   -0.8120 h1        1 MOL      0.022774
    139 H64         6.8730   -5.8390   -2.7010 hc        1 MOL      0.102899
    140 H65         7.4070   -4.6650   -3.7750 hc        1 MOL      0.102899
    141 H66         8.4980   -5.0510   -2.4160 hc        1 MOL      0.102899
    142 N13         6.8180   -1.4090   -1.3230 n         1 MOL     -0.153620
    143 C46         7.1110    0.0650   -1.4020 c3        1 MOL      0.424596
    144 C47         7.0850    0.6260    0.0230 c         1 MOL      0.135574
    145 O19         6.3760    0.0890    0.8810 o         1 MOL     -0.369312
    146 C48         6.0610    0.7300   -2.2250 c3        1 MOL     -0.347565
    147 H67         5.9780   -1.6530   -0.8060 hn        1 MOL     -0.046338
    148 H68         8.1240    0.1180   -1.8020 h1        1 MOL     -0.033846
    149 H69         5.0460    0.4670   -1.9120 hc        1 MOL      0.095120
    150 H70         6.2670    1.8030   -2.1540 hc        1 MOL      0.095120
    151 H71         6.1810    0.3350   -3.2330 hc        1 MOL      0.095120
    152 N14         7.6870    1.7510    0.2500 n         1 MOL     -0.190450
    153 C49         7.7730    2.5430    1.4950 c3        1 MOL     -0.216713
    154 C50         8.3490    1.7490    2.6950 c         1 MOL      0.430862
    155 O20         7.9130    2.0130    3.8080 o         1 MOL     -0.478792
    156 C51         6.4140    3.1580    1.9000 c3        1 MOL      0.274329
    157 C52         5.7790    4.1710    0.8750 c3        1 MOL     -0.044671
    158 C53         4.4640    4.8710    1.2770 c         1 MOL      0.636677
    159 O21         3.3520    4.2610    1.2510 o         1 MOL     -0.711816
    160 O22         4.4640    6.0630    1.6750 o         1 MOL     -0.711816
    161 H72         8.2450    2.0450   -0.5380 hn        1 MOL      0.222855
    162 H73         8.4110    3.4020    1.3240 h1        1 MOL      0.102503
    163 H74         6.5490    3.7640    2.8000 hc        1 MOL     -0.012256
    164 H75         5.6620    2.4180    2.1570 hc        1 MOL     -0.012256
    165 H76         5.7220    3.7150   -0.1140 hc        1 MOL     -0.021980
    166 H77         6.4950    4.9770    0.6720 hc        1 MOL     -0.021980
    167 N15         9.0910    0.6590    2.3670 n         1 MOL     -0.310569
    168 C54         9.5400   -0.4050    3.2740 c3        1 MOL      0.026264
    169 H78        10.6160   -0.5400    3.1700 h1        1 MOL      0.043521
    170 H79         9.3070   -0.1290    4.3030 h1        1 MOL      0.043521
    171 H80         9.0320   -1.3360    3.0240 h1        1 MOL      0.043521
    172 H81         9.3790    0.5350    1.4070 hn        1 MOL      0.234675
    173 Ca1         0.9040    4.3040    0.8480 Ca        1 MOL      1.813113
    174 O23         1.9350    6.6590    1.6740 oh        1 MOL     -0.854002
    175 O24         0.7930    5.5650   -1.6230 oh        1 MOL     -0.854002
    176 H82         2.8720    6.5210    1.5320 ho        1 MOL      0.414260
    177 H83         1.0950    4.8220   -2.1660 ho        1 MOL      0.414260
    178 H84         1.9000    7.3470    2.3350 ho        1 MOL      0.414260
    179 H85         0.7010    6.2840   -2.2390 ho        1 MOL      0.414260
    180 O25         1.5890    1.6950    1.4000 oh        1 MOL     -0.854002
    181 O26        -1.1100    6.1000    0.7690 oh        1 MOL     -0.854002
    182 H86         0.9830    0.9560    1.3550 ho        1 MOL      0.414260
    183 H87        -1.7690    6.1890    0.0820 ho        1 MOL      0.414260
    184 H88         2.4460    1.2920    1.5060 ho        1 MOL      0.414260
    185 H89        -0.9370    7.0020    1.0460 ho        1 MOL      0.414260
    186 O27         0.9480    4.5320    3.5860 oh        1 MOL     -0.854002
    187 H90         0.9330    3.8850    4.2900 ho        1 MOL      0.414260
    188 H91         1.2380    5.3340    4.0030 ho        1 MOL      0.414260
@<TRIPOS>BOND
     1    1    2 1   
     2    1    4 1   
     3    1    5 1   
     4    1    6 1   
     5    2    3 2   
     6    2    7 1   
     7    7    8 1   
     8    7   15 1   
     9    8    9 1   
    10    8   11 1   
    11    8   16 1   
    12    9   10 2   
    13    9   19 1   
    14   11   12 1   
    15   11   17 1   
    16   11   18 1   
    17   12   13 1   
    18   12   14 1   
    19   19   20 1   
    20   19   28 1   
    21   20   21 1   
    22   20   23 1   
    23   20   29 1   
    24   21   22 2   
    25   21   41 1   
    26   23   24 1   
    27   23   30 1   
    28   23   31 1   
    29   24   25 1   
    30   24   32 1   
    31   24   33 1   
    32   25   26 1   
    33   25   34 1   
    34   25   35 1   
    35   26   27 1   
    36   26   36 1   
    37   26   37 1   
    38   27   38 1   
    39   27   39 1   
    40   27   40 1   
    41   41   42 1   
    42   41   49 1   
    43   42   43 1   
    44   42   45 1   
    45   42   50 1   
    46   43   44 2   
    47   43   53 1   
    48   45   46 1   
    49   45   51 1   
    50   45   52 1   
    51   46   47 1   
    52   46   48 1   
    53   53   54 1   
    54   53   57 1   
    55   54   55 1   
    56   54   58 1   
    57   54   59 1   
    58   55   56 2   
    59   55   60 1   
    60   60   61 1   
    61   60   68 1   
    62   61   62 1   
    63   61   64 1   
    64   61   69 1   
    65   62   63 2   
    66   62   74 1   
    67   64   65 1   
    68   64   70 1   
    69   64   71 1   
    70   65   66 1   
    71   65   67 2   
    72   66   72 1   
    73   66   73 1   
    74   74   75 1   
    75   74   78 1   
    76   75   76 1   
    77   75   79 1   
    78   75   80 1   
    79   76   77 2   
    80   76   81 1   
    81   81   82 1   
    82   81   93 1   
    83   82   83 1   
    84   82   85 1   
    85   82   94 1   
    86   83   84 2   
    87   83  102 1   
    88   85   86 1   
    89   85   95 1   
    90   85   96 1   
    91   86   87 ar  
    92   86   88 ar  
    93   87   89 ar  
    94   87   97 1   
    95   88   90 ar  
    96   88   98 1   
    97   89   91 ar  
    98   89   99 1   
    99   90   91 ar  
   100   90  100 1   
   101   91   92 1   
   102   92  101 1   
   103  102  103 1   
   104  102  110 1   
   105  103  104 1   
   106  103  106 1   
   107  103  111 1   
   108  104  105 2   
   109  104  121 1   
   110  106  107 1   
   111  106  108 1   
   112  106  112 1   
   113  107  109 1   
   114  107  113 1   
   115  107  114 1   
   116  108  115 1   
   117  108  116 1   
   118  108  117 1   
   119  109  118 1   
   120  109  119 1   
   121  109  120 1   
   122  121  122 1   
   123  121  127 1   
   124  122  123 1   
   125  122  125 1   
   126  122  128 1   
   127  123  124 2   
   128  123  132 1   
   129  125  126 1   
   130  125  129 1   
   131  125  130 1   
   132  126  131 1   
   133  132  133 1   
   134  132  137 1   
   135  133  134 1   
   136  133  136 1   
   137  133  138 1   
   138  134  135 2   
   139  134  142 1   
   140  136  139 1   
   141  136  140 1   
   142  136  141 1   
   143  142  143 1   
   144  142  147 1   
   145  143  144 1   
   146  143  146 1   
   147  143  148 1   
   148  144  145 2   
   149  144  152 1   
   150  146  149 1   
   151  146  150 1   
   152  146  151 1   
   153  152  153 1   
   154  152  161 1   
   155  153  154 1   
   156  153  156 1   
   157  153  162 1   
   158  154  155 2   
   159  154  167 1   
   160  156  157 1   
   161  156  163 1   
   162  156  164 1   
   163  157  158 1   
   164  157  165 1   
   165  157  166 1   
   166  158  159 1   
   167  158  160 1   
   168  167  168 1   
   169  167  172 1   
   170  168  169 1   
   171  168  170 1   
   172  168  171 1   
   173  174  176 1   
   174  174  178 1   
   175  175  177 1   
   176  175  179 1   
   177  180  182 1   
   178  180  184 1   
   179  181  183 1   
   180  181  185 1   
   181  186  187 1   
   182  186  188 1   
@<TRIPOS>SUBSTRUCTURE
     1 MOL         1 TEMP              0 ****  ****    0 ROOT
