@<TRIPOS>MOLECULE
MOL
  184   179     1     0     0
SMALL
resp


@<TRIPOS>ATOM
      1 C1         10.5180    6.0600   -2.7680 c3        1 MOL     -0.349616
      2 C2         10.2630    5.2620   -1.4890 c         1 MOL      0.685706
      3 O1         10.4130    5.7740   -0.4020 o         1 MOL     -0.584859
      4 H1          9.6620    6.7030   -2.9710 hc        1 MOL      0.092132
      5 H2         11.4110    6.6720   -2.6430 hc        1 MOL      0.092132
      6 H3         10.6610    5.3730   -3.6030 hc        1 MOL      0.092132
      7 N1         10.0550    3.9360   -1.5500 n         1 MOL     -0.585429
      8 C3          9.7780    3.0090   -2.6710 c3        1 MOL      0.295255
      9 C4         10.4490    1.5900   -2.3660 c         1 MOL      0.420132
     10 O2         11.1600    1.5120   -1.3840 o         1 MOL     -0.459109
     11 C5          8.2400    2.9610   -2.7810 c3        1 MOL     -0.556449
     12 C6          7.6300    2.7240   -1.4050 c         1 MOL      0.852491
     13 O3          7.8100    1.5990   -0.8680 o         1 MOL     -0.703182
     14 O4          7.0310    3.6030   -0.7620 o         1 MOL     -0.703182
     15 H4         10.0470    3.4470   -0.6620 hn        1 MOL      0.354543
     16 H5         10.2090    3.3620   -3.6060 h1        1 MOL      0.032726
     17 H6          8.0150    2.0650   -3.3560 hc        1 MOL      0.121642
     18 H7          7.8850    3.9500   -3.0750 hc        1 MOL      0.121642
     19 N2         10.1500    0.5790   -3.2690 n         1 MOL     -0.566387
     20 C7         10.8800   -0.7240   -3.2590 c3        1 MOL      0.176259
     21 C8         10.9650   -1.5760   -2.0440 c         1 MOL      0.399241
     22 O5         11.4870   -2.7090   -2.1520 o         1 MOL     -0.542699
     23 C9         12.3060   -0.4970   -3.8550 c3        1 MOL     -0.353362
     24 H8          9.5410    0.8140   -4.0480 hn        1 MOL      0.338713
     25 H9         10.3380   -1.3350   -3.9860 h1        1 MOL      0.087787
     26 H10        12.2410    0.0630   -4.7970 hc        1 MOL      0.101849
     27 H11        12.8490    0.1220   -3.1400 hc        1 MOL      0.101849
     28 H12        12.8200   -1.4510   -3.8690 hc        1 MOL      0.101849
     29 N3         10.4180   -1.1540   -0.8950 n         1 MOL     -0.105497
     30 C10        10.3250   -2.0100    0.3250 c3        1 MOL      0.035624
     31 C11         9.1340   -3.0180    0.1610 c         1 MOL      0.486889
     32 O6          8.2080   -2.7690   -0.6500 o         1 MOL     -0.502107
     33 C12        10.3160   -1.0980    1.5970 c3        1 MOL     -0.105998
     34 C13         9.2670    0.0090    1.6390 c         1 MOL      0.772358
     35 O7          8.0410   -0.2270    1.8730 o         1 MOL     -0.694403
     36 O8          9.5960    1.2300    1.4790 o         1 MOL     -0.694403
     37 H13        10.0670   -0.2050   -0.8760 hn        1 MOL      0.128982
     38 H14        11.2620   -2.5700    0.2990 h1        1 MOL      0.036863
     39 H15        11.2630   -0.5950    1.7540 hc        1 MOL      0.006834
     40 H16        10.0200   -1.7980    2.3730 hc        1 MOL      0.006834
     41 N4          9.0780   -4.1030    0.9300 n         1 MOL     -0.391091
     42 C14         8.0350   -5.1950    0.8440 c3        1 MOL     -0.236516
     43 C15         6.5540   -4.9080    1.2370 c         1 MOL      0.595870
     44 O9          5.7510   -5.8490    1.4610 o         1 MOL     -0.583959
     45 H17         9.7790   -4.1830    1.6560 hn        1 MOL      0.287762
     46 H18         8.3270   -6.0750    1.4120 h1        1 MOL      0.142054
     47 H19         8.0130   -5.4300   -0.2220 h1        1 MOL      0.142054
     48 N5          6.1480   -3.6790    1.4620 n         1 MOL     -0.344081
     49 C16         4.9230   -3.3230    2.1420 c3        1 MOL      0.295530
     50 C17         3.7930   -2.8630    1.1900 c         1 MOL      0.500557
     51 O10         4.0670   -2.3700    0.1310 o         1 MOL     -0.456131
     52 C18         5.2410   -2.1160    3.0140 c3        1 MOL     -0.367913
     53 C19         6.1940   -2.2830    4.1940 c         1 MOL      0.559376
     54 N6          7.4190   -2.0670    3.9010 n         1 MOL     -0.632369
     55 O11         5.7800   -2.6090    5.3160 o         1 MOL     -0.571933
     56 H20         6.7980   -2.9300    1.2660 hn        1 MOL      0.185067
     57 H21         4.5760   -4.1310    2.7900 h1        1 MOL      0.039495
     58 H22         4.4070   -1.6750    3.5600 hc        1 MOL      0.085381
     59 H23         5.5530   -1.3040    2.3730 hc        1 MOL      0.085381
     60 H24         7.6090   -1.4520    3.1130 hn        1 MOL      0.300417
     61 H25         8.1600   -2.1500    4.5850 hn        1 MOL      0.300417
     62 N7          2.5300   -3.0310    1.5830 n         1 MOL     -0.647008
     63 C20         1.4340   -2.5730    0.7040 c3        1 MOL      0.206843
     64 C21         1.1350   -3.6510   -0.4140 c         1 MOL      0.616621
     65 O12         1.6460   -4.7480   -0.4700 o         1 MOL     -0.523576
     66 H26         2.2980   -3.3040    2.5260 hn        1 MOL      0.348126
     67 H27         1.7050   -1.6110    0.2640 h1        1 MOL      0.023592
     68 H28         0.5310   -2.3970    1.2880 h1        1 MOL      0.023592
     69 N8          0.4650   -3.2700   -1.4890 n         1 MOL     -0.615497
     70 C22        -0.2030   -1.9370   -1.7600 c3        1 MOL     -0.017011
     71 C23        -1.5610   -1.8590   -1.0490 c         1 MOL      0.368662
     72 O13        -2.1540   -2.8920   -0.6590 o         1 MOL     -0.466282
     73 C24        -0.3890   -1.6170   -3.2030 c3        1 MOL      0.525502
     74 C25         0.9790   -1.3660   -3.7880 c3        1 MOL     -0.564145
     75 O14        -0.9320   -2.7070   -3.8820 oh        1 MOL     -0.589850
     76 H29         0.2420   -3.9360   -2.2130 hn        1 MOL      0.379193
     77 H30         0.3900   -1.1400   -1.3220 h1        1 MOL      0.038351
     78 H31        -1.0580   -0.7640   -3.2870 h1        1 MOL     -0.036126
     79 H32        -1.7600   -2.3200   -4.1720 ho        1 MOL      0.385157
     80 H33         1.5200   -0.5780   -3.2570 hc        1 MOL      0.141545
     81 H34         1.6230   -2.2410   -3.6780 hc        1 MOL      0.141545
     82 H35         0.9250   -1.1570   -4.8600 hc        1 MOL      0.141545
     83 N9         -2.0790   -0.6600   -0.9810 n         1 MOL     -0.415255
     84 C26        -3.4680   -0.4550   -0.6550 c3        1 MOL      0.124920
     85 C27        -4.2730    0.1230   -1.7940 c         1 MOL      0.622428
     86 O15        -3.7750    1.1330   -2.3680 o         1 MOL     -0.625754
     87 C28        -3.6990    0.5520    0.4960 c3        1 MOL      0.112863
     88 C29        -2.8930    0.1280    1.7810 c3        1 MOL      0.086661
     89 C30        -5.1560    0.8180    0.8680 c3        1 MOL     -0.202037
     90 C31        -2.9880    0.9910    3.0610 c3        1 MOL     -0.425904
     91 H36        -1.6270    0.2010   -1.2470 hn        1 MOL      0.250097
     92 H37        -3.8830   -1.4470   -0.4790 h1        1 MOL      0.056148
     93 H38        -3.3190    1.4970    0.1070 hc        1 MOL     -0.016983
     94 H39        -1.8470    0.2190    1.4930 hc        1 MOL     -0.002873
     95 H40        -3.1230   -0.9100    2.0220 hc        1 MOL     -0.002873
     96 H41        -5.5300   -0.1700    1.1290 hc        1 MOL      0.070279
     97 H42        -5.2260    1.4800    1.7420 hc        1 MOL      0.070279
     98 H43        -5.7150    1.2250    0.0250 hc        1 MOL      0.070279
     99 H44        -2.4870    0.5270    3.9090 hc        1 MOL      0.099595
    100 H45        -2.7130    2.0240    2.8660 hc        1 MOL      0.099595
    101 H46        -3.9800    1.0370    3.5240 hc        1 MOL      0.099595
    102 N10        -5.4480   -0.3610   -2.2240 n         1 MOL     -0.606538
    103 C32        -6.2510   -1.3660   -1.6520 c3        1 MOL      0.167878
    104 C33        -7.7340   -0.9670   -1.5900 c         1 MOL      0.709367
    105 O16        -8.3010   -0.3750   -2.5530 o         1 MOL     -0.571447
    106 C34        -6.0320   -2.7000   -2.3660 c3        1 MOL     -0.245731
    107 C35        -6.5250   -3.9580   -1.5680 c         1 MOL      0.703955
    108 O17        -6.8950   -4.9010   -2.2630 o         1 MOL     -0.709361
    109 O18        -6.7050   -3.8370   -0.3430 o         1 MOL     -0.709361
    110 H47        -5.8820    0.1870   -2.9600 hn        1 MOL      0.359990
    111 H48        -5.9300   -1.5480   -0.6290 h1        1 MOL     -0.017298
    112 H49        -4.9810   -2.7770   -2.6440 hc        1 MOL      0.048021
    113 H50        -6.5750   -2.6970   -3.3150 hc        1 MOL      0.048021
    114 N11        -8.4270   -1.1490   -0.4370 n         1 MOL     -0.789228
    115 C36        -9.8820   -0.9710   -0.2340 c3        1 MOL      0.634217
    116 C37       -10.1260   -0.8480    1.2740 c         1 MOL      0.197373
    117 O19        -9.4810   -1.4480    2.1700 o         1 MOL     -0.474962
    118 C38       -10.6350   -2.1540   -0.7320 c3        1 MOL     -0.172540
    119 C39       -12.1400   -1.9660   -0.7370 ca        1 MOL      0.061865
    120 C40       -12.9450   -2.3680    0.3850 ca        1 MOL     -0.168180
    121 C41       -12.7820   -1.2760   -1.7950 ca        1 MOL     -0.168180
    122 C42       -14.3000   -2.1030    0.3720 ca        1 MOL     -0.086820
    123 C43       -14.1440   -0.9790   -1.7320 ca        1 MOL     -0.086820
    124 C44       -14.9440   -1.3800   -0.6620 ca        1 MOL     -0.177269
    125 H51        -7.8930   -1.5910    0.2980 hn        1 MOL      0.352614
    126 H52       -10.2790   -0.0990   -0.7480 h1        1 MOL     -0.074800
    127 H53       -10.4460   -3.0350   -0.1230 hc        1 MOL      0.076699
    128 H54       -10.2900   -2.2530   -1.7660 hc        1 MOL      0.076699
    129 H55       -12.4640   -2.8680    1.2130 ha        1 MOL      0.134601
    130 H56       -12.2210   -1.0500   -2.6940 ha        1 MOL      0.134601
    131 H57       -14.8870   -2.3610    1.2450 ha        1 MOL      0.092809
    132 H58       -14.5620   -0.5360   -2.6300 ha        1 MOL      0.092809
    133 H59       -15.9640   -1.0310   -0.6750 ha        1 MOL      0.115638
    134 N12       -11.0720    0.0600    1.6910 n         1 MOL     -0.080598
    135 C45       -11.8590    1.0090    0.9640 c3        1 MOL     -0.022314
    136 C46       -10.9900    2.2730    0.6040 c         1 MOL      0.359848
    137 O20       -11.4700    3.3130    0.1400 o         1 MOL     -0.529808
    138 C47       -13.0500    1.4040    1.8680 c3        1 MOL      0.046290
    139 C48       -12.3210    1.4330    3.1670 c3        1 MOL     -0.084777
    140 C49       -11.3170    0.3060    3.0790 c3        1 MOL     -0.028946
    141 H60       -12.2000    0.5670    0.0200 h1        1 MOL      0.080543
    142 H61       -13.5880    2.3040    1.5600 hc        1 MOL      0.007145
    143 H62       -13.7610    0.5750    1.8240 hc        1 MOL      0.007145
    144 H63       -11.7240    2.3390    3.2980 hc        1 MOL      0.027102
    145 H64       -12.9500    1.2250    4.0360 hc        1 MOL      0.027102
    146 H65       -10.4200    0.6680    3.5840 h1        1 MOL      0.050375
    147 H66       -11.6600   -0.5870    3.6050 h1        1 MOL      0.050375
    148 N13        -9.7100    2.2460    1.0170 n         1 MOL     -0.160143
    149 C50        -8.6860    3.3190    0.9380 c3        1 MOL     -0.028447
    150 C51        -7.7070    3.1650    2.0690 c         1 MOL      0.349817
    151 O21        -7.5480    2.1300    2.6850 o         1 MOL     -0.526815
    152 C52        -7.9940    3.1560   -0.4380 c3        1 MOL     -0.053725
    153 C53        -8.7610    3.7790   -1.6010 c3        1 MOL     -0.309559
    154 C54        -7.7820    4.1390   -2.7530 c         1 MOL      0.759914
    155 O22        -7.7530    3.3840   -3.7260 o         1 MOL     -0.694927
    156 O23        -7.2380    5.2870   -2.7230 o         1 MOL     -0.694927
    157 H67        -9.3730    1.3840    1.4270 hn        1 MOL      0.221406
    158 H68        -9.0320    4.3540    0.9760 h1        1 MOL      0.129729
    159 H69        -7.7540    2.1030   -0.6320 hc        1 MOL      0.059440
    160 H70        -7.0270    3.6530   -0.4760 hc        1 MOL      0.059440
    161 H71        -9.3730    4.6120   -1.2560 hc        1 MOL      0.082924
    162 H72        -9.4610    3.0600   -2.0380 hc        1 MOL      0.082924
    163 N14        -6.9420    4.1570    2.5080 n         1 MOL     -0.322507
    164 C55        -6.7500    5.5210    1.8950 c3        1 MOL     -0.091127
    165 H73        -7.7200    5.9330    1.6160 h1        1 MOL      0.062268
    166 H74        -6.2700    6.1810    2.6170 h1        1 MOL      0.062268
    167 H75        -6.1230    5.4360    1.0070 h1        1 MOL      0.062268
    168 H76        -6.3410    4.0080    3.3050 hn        1 MOL      0.280767
    169 Ca1         7.1510    2.3300    1.5930 Ca        1 MOL      1.708772
    170 O24         5.0430    0.8960    0.7000 oh        1 MOL     -0.814372
    171 H77         4.4620    0.7420    1.4470 ho        1 MOL      0.385100
    172 H78         4.8500    0.1800    0.1000 ho        1 MOL      0.385100
    173 O25         8.9840    4.3950    1.9400 oh        1 MOL     -0.814372
    174 H79         9.0020    5.1070    1.3100 ho        1 MOL      0.385100
    175 H80         9.0000    4.8200    2.7930 ho        1 MOL      0.385100
    176 O26         5.9840    4.7730    1.6870 oh        1 MOL     -0.814372
    177 H81         6.4500    5.5770    1.9150 ho        1 MOL      0.385100
    178 H82         5.0580    5.0060    1.7230 ho        1 MOL      0.385100
    179 O27         5.0820    2.4500    3.5730 oh        1 MOL     -0.814372
    180 H83         5.3870    2.8500    4.3840 ho        1 MOL      0.385100
    181 H84         4.1290    2.4430    3.6500 ho        1 MOL      0.385100
    182 O28         7.9820    2.0260    4.0360 oh        1 MOL     -0.814372
    183 H85         7.4250    2.2430    4.7820 ho        1 MOL      0.385100
    184 H86         8.8590    1.9400    4.4260 ho        1 MOL      0.385100
@<TRIPOS>BOND
     1    1    2 1   
     2    1    4 1   
     3    1    5 1   
     4    1    6 1   
     5    2    3 2   
     6    2    7 1   
     7    7    8 1   
     8    7   15 1   
     9    8    9 1   
    10    8   11 1   
    11    8   16 1   
    12    9   10 2   
    13    9   19 1   
    14   11   12 1   
    15   11   17 1   
    16   11   18 1   
    17   12   13 1   
    18   12   14 1   
    19   19   20 1   
    20   19   24 1   
    21   20   21 1   
    22   20   23 1   
    23   20   25 1   
    24   21   22 2   
    25   21   29 1   
    26   23   26 1   
    27   23   27 1   
    28   23   28 1   
    29   29   30 1   
    30   29   37 1   
    31   30   31 1   
    32   30   33 1   
    33   30   38 1   
    34   31   32 2   
    35   31   41 1   
    36   33   34 1   
    37   33   39 1   
    38   33   40 1   
    39   34   35 1   
    40   34   36 1   
    41   41   42 1   
    42   41   45 1   
    43   42   43 1   
    44   42   46 1   
    45   42   47 1   
    46   43   44 2   
    47   43   48 1   
    48   48   49 1   
    49   48   56 1   
    50   49   50 1   
    51   49   52 1   
    52   49   57 1   
    53   50   51 2   
    54   50   62 1   
    55   52   53 1   
    56   52   58 1   
    57   52   59 1   
    58   53   54 1   
    59   53   55 2   
    60   54   60 1   
    61   54   61 1   
    62   62   63 1   
    63   62   66 1   
    64   63   64 1   
    65   63   67 1   
    66   63   68 1   
    67   64   65 2   
    68   64   69 1   
    69   69   70 1   
    70   69   76 1   
    71   70   71 1   
    72   70   73 1   
    73   70   77 1   
    74   71   72 2   
    75   71   83 1   
    76   73   74 1   
    77   73   75 1   
    78   73   78 1   
    79   74   80 1   
    80   74   81 1   
    81   74   82 1   
    82   75   79 1   
    83   83   84 1   
    84   83   91 1   
    85   84   85 1   
    86   84   87 1   
    87   84   92 1   
    88   85   86 2   
    89   85  102 1   
    90   87   88 1   
    91   87   89 1   
    92   87   93 1   
    93   88   90 1   
    94   88   94 1   
    95   88   95 1   
    96   89   96 1   
    97   89   97 1   
    98   89   98 1   
    99   90   99 1   
   100   90  100 1   
   101   90  101 1   
   102  102  103 1   
   103  102  110 1   
   104  103  104 1   
   105  103  106 1   
   106  103  111 1   
   107  104  105 2   
   108  104  114 1   
   109  106  107 1   
   110  106  112 1   
   111  106  113 1   
   112  107  108 1   
   113  107  109 1   
   114  114  115 1   
   115  114  125 1   
   116  115  116 1   
   117  115  118 1   
   118  115  126 1   
   119  116  117 2   
   120  116  134 1   
   121  118  119 1   
   122  118  127 1   
   123  118  128 1   
   124  119  120 ar  
   125  119  121 ar  
   126  120  122 ar  
   127  120  129 1   
   128  121  123 ar  
   129  121  130 1   
   130  122  124 ar  
   131  122  131 1   
   132  123  124 ar  
   133  123  132 1   
   134  124  133 1   
   135  134  135 1   
   136  134  140 1   
   137  135  136 1   
   138  135  138 1   
   139  135  141 1   
   140  136  137 2   
   141  136  148 1   
   142  138  139 1   
   143  138  142 1   
   144  138  143 1   
   145  139  140 1   
   146  139  144 1   
   147  139  145 1   
   148  140  146 1   
   149  140  147 1   
   150  148  149 1   
   151  148  157 1   
   152  149  150 1   
   153  149  152 1   
   154  149  158 1   
   155  150  151 2   
   156  150  163 1   
   157  152  153 1   
   158  152  159 1   
   159  152  160 1   
   160  153  154 1   
   161  153  161 1   
   162  153  162 1   
   163  154  155 1   
   164  154  156 1   
   165  163  164 1   
   166  163  168 1   
   167  164  165 1   
   168  164  166 1   
   169  164  167 1   
   170  170  171 1   
   171  170  172 1   
   172  173  174 1   
   173  173  175 1   
   174  176  177 1   
   175  176  178 1   
   176  179  180 1   
   177  179  181 1   
   178  182  183 1   
   179  182  184 1   
@<TRIPOS>SUBSTRUCTURE
     1 MOL         1 TEMP              0 ****  ****    0 ROOT
