@<TRIPOS>MOLECULE
MOL
  189   185     1     0     0
SMALL
resp


@<TRIPOS>ATOM
      1 C1          1.0080    7.6400   -2.4240 c3        1 MOL     -0.314115
      2 C2          1.4390    6.1480   -2.2900 c         1 MOL      0.562657
      3 O1          1.5150    5.3950   -3.3070 o         1 MOL     -0.563599
      4 H1         -0.0740    7.6970   -2.5410 hc        1 MOL      0.082560
      5 H2          1.3060    8.1860   -1.5290 hc        1 MOL      0.082560
      6 H3          1.4920    8.0810   -3.2960 hc        1 MOL      0.082560
      7 N1          1.6800    5.7340   -1.0350 n         1 MOL     -0.411920
      8 C3          2.0580    4.3840   -0.8280 c3        1 MOL      0.307286
      9 C4          0.8270    3.5690   -0.3840 c         1 MOL      0.375784
     10 O2          0.6910    2.3780   -0.7170 o         1 MOL     -0.484394
     11 C5          3.0850    4.2470    0.3260 c3        1 MOL     -0.406425
     12 C6          3.1710    5.4000    1.4320 c         1 MOL      0.665564
     13 O3          4.2520    5.4980    2.0210 o         1 MOL     -0.683714
     14 O4          2.2390    6.2060    1.6160 o         1 MOL     -0.683714
     15 H4          1.5630    6.3400   -0.2380 hn        1 MOL      0.284832
     16 H5          2.4780    3.9310   -1.7240 h1        1 MOL      0.036589
     17 H6          4.0920    4.2240   -0.1050 hc        1 MOL      0.088903
     18 H7          2.9560    3.2450    0.7230 hc        1 MOL      0.088903
     19 N2         -0.0960    4.2310    0.3150 n         1 MOL     -0.537908
     20 C7         -1.3640    3.6380    0.6490 c3        1 MOL      0.451791
     21 C8         -2.2860    3.4070   -0.5530 c         1 MOL      0.310458
     22 O5         -2.3350    4.2600   -1.4160 o         1 MOL     -0.531281
     23 C9         -2.0440    4.4680    1.7550 c3        1 MOL      0.023439
     24 C10        -1.3430    4.5500    3.1380 c3        1 MOL     -0.088242
     25 C11        -2.0430    5.4610    4.1270 c3        1 MOL      0.113094
     26 C12        -1.2570    5.3210    5.4400 c3        1 MOL      0.097332
     27 N3         -1.7780    6.2170    6.4870 n4        1 MOL     -0.286682
     28 H8          0.0420    5.2320    0.4040 hn        1 MOL      0.263098
     29 H9         -1.1530    2.6540    1.0560 h1        1 MOL     -0.014772
     30 H10        -3.0340    4.0730    1.9740 hc        1 MOL     -0.006854
     31 H11        -2.2070    5.4320    1.2650 hc        1 MOL     -0.006854
     32 H12        -0.3620    5.0010    2.9770 hc        1 MOL      0.022000
     33 H13        -1.1960    3.5530    3.5510 hc        1 MOL      0.022000
     34 H14        -3.0630    5.1240    4.3130 hc        1 MOL     -0.006956
     35 H15        -2.0660    6.4680    3.7100 hc        1 MOL     -0.006956
     36 H16        -0.2520    5.6600    5.1980 hx        1 MOL      0.051163
     37 H17        -1.1340    4.2740    5.7070 hx        1 MOL      0.051163
     38 H18        -2.2820    5.6780    7.1790 hn        1 MOL      0.258118
     39 H19        -0.9650    6.6060    6.9380 hn        1 MOL      0.258118
     40 H20        -2.2790    6.9930    6.0980 hn        1 MOL      0.258118
     41 N4         -3.0300    2.3430   -0.6520 n         1 MOL     -0.275089
     42 C13        -3.2310    1.2260    0.2720 c3        1 MOL     -0.070827
     43 C14        -3.7880    1.3770    1.7400 c         1 MOL      0.376753
     44 O6         -3.1350    1.0340    2.7040 o         1 MOL     -0.555757
     45 C15        -2.1020    0.1920    0.0710 c3        1 MOL     -0.030772
     46 C16        -1.8530   -0.2800   -1.3880 c         1 MOL      0.554336
     47 O7         -2.6300   -0.1410   -2.3560 o         1 MOL     -0.768751
     48 O8         -0.7610   -0.8590   -1.5860 o         1 MOL     -0.768751
     49 H21        -3.6090    2.2920   -1.4760 hn        1 MOL      0.260037
     50 H22        -4.0910    0.7050   -0.1360 h1        1 MOL      0.108639
     51 H23        -2.2880   -0.6960    0.6710 hc        1 MOL      0.063172
     52 H24        -1.1910    0.6000    0.5220 hc        1 MOL      0.063172
     53 N5         -4.9790    1.8870    1.9410 n         1 MOL     -0.276388
     54 C17        -5.8740    2.2450    0.8420 c3        1 MOL     -0.059128
     55 C18        -7.3280    2.7040    1.1720 c         1 MOL      0.530379
     56 O9         -7.6050    3.2810    2.1740 o         1 MOL     -0.550531
     57 H25        -5.1700    2.0260    2.9180 hn        1 MOL      0.290458
     58 H26        -5.9190    1.4640    0.0820 h1        1 MOL      0.056385
     59 H27        -5.4710    3.0610    0.2420 h1        1 MOL      0.056385
     60 N6         -8.3130    2.4640    0.2570 n         1 MOL     -0.342401
     61 C19        -8.1810    1.6040   -0.9350 c3        1 MOL     -0.232806
     62 C20        -7.9570    0.1250   -0.5490 c         1 MOL      0.528770
     63 O10        -8.6520   -0.3420    0.3080 o         1 MOL     -0.498247
     64 C21        -9.4900    1.7400   -1.7590 c3        1 MOL     -0.173477
     65 C22        -9.4660    1.0670   -3.0930 c         1 MOL      0.674307
     66 O11        -9.6520   -0.1610   -3.2280 o         1 MOL     -0.654384
     67 O12        -9.4470    1.7650   -4.1430 o         1 MOL     -0.654384
     68 H28        -9.1950    2.8620    0.5560 hn        1 MOL      0.287271
     69 H29        -7.3770    2.0230   -1.5270 h1        1 MOL      0.109234
     70 H30        -9.6950    2.8010   -1.8650 hc        1 MOL      0.084672
     71 H31       -10.3750    1.2820   -1.3090 hc        1 MOL      0.084672
     72 N7         -6.9700   -0.5370   -1.1300 n         1 MOL     -0.314029
     73 C23        -6.5910   -1.9390   -1.0440 c3        1 MOL     -0.006621
     74 C24        -5.6030   -2.2950   -0.0370 c         1 MOL      0.643116
     75 O13        -5.2630   -1.5550    0.8620 o         1 MOL     -0.511450
     76 H32        -6.4220    0.0760   -1.7100 hn        1 MOL      0.242206
     77 H33        -6.2880   -2.2220   -2.0510 h1        1 MOL      0.065937
     78 H34        -7.5170   -2.4660   -0.8010 h1        1 MOL      0.065937
     79 N8         -5.1910   -3.5690   -0.0210 n         1 MOL     -0.479021
     80 C25        -4.3950   -4.2220    0.9560 c3        1 MOL      0.028408
     81 C26        -2.9560   -3.7310    0.8250 c         1 MOL      0.312629
     82 O14        -2.3700   -3.4760   -0.3030 o         1 MOL     -0.489086
     83 C27        -4.5080   -5.7230    0.8850 c3        1 MOL      0.318176
     84 C28        -4.1940   -6.2320   -0.5600 c3        1 MOL     -0.156973
     85 O15        -5.7900   -6.2240    1.2640 oh        1 MOL     -0.594741
     86 H35        -5.5960   -4.1110   -0.7650 hn        1 MOL      0.259165
     87 H36        -4.7390   -3.8900    1.9330 h1        1 MOL      0.080578
     88 H37        -3.7700   -6.2040    1.5410 h1        1 MOL      0.023895
     89 H38        -5.8010   -6.5910    2.1570 ho        1 MOL      0.382120
     90 H39        -3.4380   -5.6270   -1.0530 hc        1 MOL      0.042582
     91 H40        -3.9150   -7.2870   -0.5780 hc        1 MOL      0.042582
     92 H41        -5.1040   -6.0870   -1.1360 hc        1 MOL      0.042582
     93 N9         -2.4030   -3.7170    1.9950 n         1 MOL     -0.360224
     94 C29        -0.9720   -3.3960    2.1500 c3        1 MOL     -0.050382
     95 C30        -0.1740   -4.6560    1.6990 c         1 MOL      0.705919
     96 O16        -0.1060   -5.6440    2.4010 o         1 MOL     -0.579986
     97 C31        -0.6290   -3.0100    3.5630 c3        1 MOL      0.022490
     98 C32        -1.4850   -1.8050    3.9610 c3        1 MOL      0.107117
     99 C33         0.8990   -2.6570    3.6340 c3        1 MOL     -0.231793
    100 C34        -1.4510   -1.3130    5.4460 c3        1 MOL     -0.336416
    101 H42        -2.8270   -4.2100    2.7600 hn        1 MOL      0.264371
    102 H43        -0.7420   -2.4920    1.5940 h1        1 MOL      0.033952
    103 H44        -0.7760   -3.8970    4.1740 hc        1 MOL      0.015595
    104 H45        -2.5310   -2.0360    3.7480 hc        1 MOL      0.051087
    105 H46        -1.2490   -0.9510    3.3180 hc        1 MOL      0.051087
    106 H47         1.5250   -3.5230    3.4240 hc        1 MOL      0.064423
    107 H48         1.1770   -1.8750    2.9340 hc        1 MOL      0.064423
    108 H49         1.1810   -2.3450    4.6380 hc        1 MOL      0.064423
    109 H50        -0.4470   -1.0030    5.7450 hc        1 MOL      0.079540
    110 H51        -2.2380   -0.5670    5.5190 hc        1 MOL      0.079540
    111 H52        -1.8240   -2.0930    6.1090 hc        1 MOL      0.079540
    112 N10         0.5520   -4.5690    0.5780 n         1 MOL     -0.504140
    113 C35         1.7140   -5.4160    0.3160 c3        1 MOL      0.094817
    114 C36         3.1010   -4.9060    0.8270 c         1 MOL      0.209929
    115 O17         4.0460   -5.6230    0.6310 o         1 MOL     -0.471952
    116 C37         1.8040   -5.8270   -1.2300 c3        1 MOL      0.321661
    117 C38         2.0250   -4.6830   -2.1290 c3        1 MOL     -0.272566
    118 O18         0.6180   -6.4760   -1.6400 oh        1 MOL     -0.634126
    119 H53         0.4110   -3.6720    0.1400 hn        1 MOL      0.382109
    120 H54         1.6160   -6.3890    0.8050 h1        1 MOL      0.125510
    121 H55         2.6520   -6.5040   -1.3160 h1        1 MOL      0.013818
    122 H56         0.5180   -6.2180   -2.5610 ho        1 MOL      0.394253
    123 H57         2.8180   -4.0390   -1.7500 hc        1 MOL      0.074316
    124 H58         2.3640   -5.1100   -3.0720 hc        1 MOL      0.074316
    125 H59         1.1760   -4.0090   -2.2410 hc        1 MOL      0.074316
    126 N11         3.1940   -3.7280    1.3970 n         1 MOL     -0.067387
    127 C39         4.3970   -2.8460    1.6820 c3        1 MOL     -0.062098
    128 C40         5.3710   -2.7110    0.4460 c         1 MOL      0.435530
    129 O19         5.1010   -3.2300   -0.6390 o         1 MOL     -0.421577
    130 C41         5.0610   -3.3710    2.9340 c3        1 MOL      0.398405
    131 C42         4.1790   -3.3870    4.1550 c3        1 MOL     -0.262601
    132 O20         6.0210   -2.4560    3.3420 oh        1 MOL     -0.651561
    133 H60         2.3050   -3.2560    1.3350 hn        1 MOL      0.088818
    134 H61         4.1180   -1.8450    2.0130 h1        1 MOL      0.100776
    135 H62         5.5470   -4.3440    2.7940 h1        1 MOL      0.007063
    136 H63         6.6480   -2.9540    3.8600 ho        1 MOL      0.404560
    137 H64         4.8050   -3.5500    5.0280 hc        1 MOL      0.060073
    138 H65         3.5940   -2.4780    4.2850 hc        1 MOL      0.060073
    139 H66         3.5130   -4.2480    4.0980 hc        1 MOL      0.060073
    140 N12         6.4550   -1.9110    0.6440 n         1 MOL     -0.349898
    141 C43         7.4650   -1.7300   -0.3660 c3        1 MOL     -0.115823
    142 C44         7.0600   -0.7700   -1.5130 c         1 MOL      0.474305
    143 O21         7.7360   -0.6410   -2.5620 o         1 MOL     -0.572684
    144 C45         8.8210   -1.3470    0.2730 c3        1 MOL      0.238480
    145 C46         9.3020    0.0630    0.5310 c3        1 MOL     -0.178807
    146 C47         8.3350    0.7910    1.4810 c3        1 MOL      0.136775
    147 C48         8.9400    1.9980    2.0600 c3        1 MOL      0.123346
    148 N13         8.0690    2.6300    3.0150 n4        1 MOL     -0.257406
    149 H67         6.5700   -1.6250    1.6080 hn        1 MOL      0.207492
    150 H68         7.5550   -2.7050   -0.8480 h1        1 MOL      0.139593
    151 H69         9.5690   -1.8330   -0.3380 hc        1 MOL     -0.039438
    152 H70         8.8380   -1.8580    1.2380 hc        1 MOL     -0.039438
    153 H71         9.1770    0.5830   -0.4090 hc        1 MOL      0.061482
    154 H72        10.2620   -0.0730    1.0160 hc        1 MOL      0.061482
    155 H73         8.0550    0.2050    2.3530 hc        1 MOL     -0.051875
    156 H74         7.3910    0.9810    0.9780 hc        1 MOL     -0.051875
    157 H75         9.2770    2.6320    1.2510 hx        1 MOL      0.036910
    158 H76         9.9020    1.7320    2.5100 hx        1 MOL      0.036910
    159 H77         7.6900    1.9060    3.6120 hn        1 MOL      0.297275
    160 H78         8.4790    3.3440    3.5980 hn        1 MOL      0.297275
    161 H79         7.2970    3.1360    2.6100 hn        1 MOL      0.297275
    162 N14         5.9410   -0.1250   -1.4010 n         1 MOL     -0.038303
    163 C49         5.2920    0.5920   -2.5470 c3        1 MOL     -0.716537
    164 C50         5.8820    1.9980   -2.6480 c         1 MOL      0.653064
    165 O22         5.8410    2.7000   -1.6760 o         1 MOL     -0.541683
    166 C51         3.8400    0.7190   -2.3310 c3        1 MOL      0.528218
    167 C52         2.9240   -0.5150   -2.3740 c3        1 MOL     -0.155358
    168 C53         2.7100   -1.0570   -3.8320 c         1 MOL      0.777108
    169 O23         1.5430   -1.1700   -4.3520 o         1 MOL     -0.774111
    170 O24         3.7570   -1.3690   -4.4740 o         1 MOL     -0.774111
    171 H80         5.3990   -0.2950   -0.5660 hn        1 MOL      0.156267
    172 H81         5.5070   -0.0310   -3.4060 h1        1 MOL      0.352179
    173 H82         3.4970    1.3550   -3.1390 hc        1 MOL     -0.073493
    174 H83         3.6320    1.3360   -1.4660 hc        1 MOL     -0.073493
    175 H84         1.9740   -0.1720   -1.9550 hc        1 MOL     -0.017720
    176 H85         3.2480   -1.3010   -1.6960 hc        1 MOL     -0.017720
    177 N15         6.4960    2.3580   -3.7860 n         1 MOL     -0.291857
    178 C54         7.2870    3.5790   -3.9780 c3        1 MOL     -0.234514
    179 H86         7.5140    3.7010   -5.0370 h1        1 MOL      0.108077
    180 H87         6.7180    4.4400   -3.6270 h1        1 MOL      0.108077
    181 H88         8.2170    3.5030   -3.4140 h1        1 MOL      0.108077
    182 H89         6.5040    1.7100   -4.5550 hn        1 MOL      0.259167
    183 Ca1        -1.1190   -0.9530   -4.2820 Ca        1 MOL      1.795007
    184 O25        -2.1990   -3.1410   -2.9990 oh        1 MOL     -0.997147
    185 H90        -1.8990   -3.0140   -2.0940 ho        1 MOL      0.482709
    186 H91        -2.9560   -3.7150   -2.9240 ho        1 MOL      0.482709
    187 O26        -0.2290    1.4850   -3.1330 oh        1 MOL     -0.997147
    188 H92        -0.4290    2.4090   -3.2870 ho        1 MOL      0.482709
    189 H93        -0.3070    1.3790   -2.1880 ho        1 MOL      0.482709
@<TRIPOS>BOND
     1    1    2 1   
     2    1    4 1   
     3    1    5 1   
     4    1    6 1   
     5    2    3 2   
     6    2    7 1   
     7    7    8 1   
     8    7   15 1   
     9    8    9 1   
    10    8   11 1   
    11    8   16 1   
    12    9   10 2   
    13    9   19 1   
    14   11   12 1   
    15   11   17 1   
    16   11   18 1   
    17   12   13 1   
    18   12   14 1   
    19   19   20 1   
    20   19   28 1   
    21   20   21 1   
    22   20   23 1   
    23   20   29 1   
    24   21   22 2   
    25   21   41 1   
    26   23   24 1   
    27   23   30 1   
    28   23   31 1   
    29   24   25 1   
    30   24   32 1   
    31   24   33 1   
    32   25   26 1   
    33   25   34 1   
    34   25   35 1   
    35   26   27 1   
    36   26   36 1   
    37   26   37 1   
    38   27   38 1   
    39   27   39 1   
    40   27   40 1   
    41   41   42 1   
    42   41   49 1   
    43   42   43 1   
    44   42   45 1   
    45   42   50 1   
    46   43   44 2   
    47   43   53 1   
    48   45   46 1   
    49   45   51 1   
    50   45   52 1   
    51   46   47 1   
    52   46   48 1   
    53   53   54 1   
    54   53   57 1   
    55   54   55 1   
    56   54   58 1   
    57   54   59 1   
    58   55   56 2   
    59   55   60 1   
    60   60   61 1   
    61   60   68 1   
    62   61   62 1   
    63   61   64 1   
    64   61   69 1   
    65   62   63 2   
    66   62   72 1   
    67   64   65 1   
    68   64   70 1   
    69   64   71 1   
    70   65   66 1   
    71   65   67 1   
    72   72   73 1   
    73   72   76 1   
    74   73   74 1   
    75   73   77 1   
    76   73   78 1   
    77   74   75 2   
    78   74   79 1   
    79   79   80 1   
    80   79   86 1   
    81   80   81 1   
    82   80   83 1   
    83   80   87 1   
    84   81   82 2   
    85   81   93 1   
    86   83   84 1   
    87   83   85 1   
    88   83   88 1   
    89   84   90 1   
    90   84   91 1   
    91   84   92 1   
    92   85   89 1   
    93   93   94 1   
    94   93  101 1   
    95   94   95 1   
    96   94   97 1   
    97   94  102 1   
    98   95   96 2   
    99   95  112 1   
   100   97   98 1   
   101   97   99 1   
   102   97  103 1   
   103   98  100 1   
   104   98  104 1   
   105   98  105 1   
   106   99  106 1   
   107   99  107 1   
   108   99  108 1   
   109  100  109 1   
   110  100  110 1   
   111  100  111 1   
   112  112  113 1   
   113  112  119 1   
   114  113  114 1   
   115  113  116 1   
   116  113  120 1   
   117  114  115 2   
   118  114  126 1   
   119  116  117 1   
   120  116  118 1   
   121  116  121 1   
   122  117  123 1   
   123  117  124 1   
   124  117  125 1   
   125  118  122 1   
   126  126  127 1   
   127  126  133 1   
   128  127  128 1   
   129  127  130 1   
   130  127  134 1   
   131  128  129 2   
   132  128  140 1   
   133  130  131 1   
   134  130  132 1   
   135  130  135 1   
   136  131  137 1   
   137  131  138 1   
   138  131  139 1   
   139  132  136 1   
   140  140  141 1   
   141  140  149 1   
   142  141  142 1   
   143  141  144 1   
   144  141  150 1   
   145  142  143 2   
   146  142  162 1   
   147  144  145 1   
   148  144  151 1   
   149  144  152 1   
   150  145  146 1   
   151  145  153 1   
   152  145  154 1   
   153  146  147 1   
   154  146  155 1   
   155  146  156 1   
   156  147  148 1   
   157  147  157 1   
   158  147  158 1   
   159  148  159 1   
   160  148  160 1   
   161  148  161 1   
   162  162  163 1   
   163  162  171 1   
   164  163  164 1   
   165  163  166 1   
   166  163  172 1   
   167  164  165 2   
   168  164  177 1   
   169  166  167 1   
   170  166  173 1   
   171  166  174 1   
   172  167  168 1   
   173  167  175 1   
   174  167  176 1   
   175  168  169 1   
   176  168  170 1   
   177  177  178 1   
   178  177  182 1   
   179  178  179 1   
   180  178  180 1   
   181  178  181 1   
   182  184  185 1   
   183  184  186 1   
   184  187  188 1   
   185  187  189 1   
@<TRIPOS>SUBSTRUCTURE
     1 MOL         1 TEMP              0 ****  ****    0 ROOT
