@<TRIPOS>MOLECULE
MOL
  185   180     1     0     0
SMALL
resp


@<TRIPOS>ATOM
      1 C1         -5.3190    1.1220   -3.5220 c3        1 MOL     -0.489638
      2 C2         -6.2010    1.2980   -2.2430 c         1 MOL      0.694989
      3 O1         -5.7480    1.3640   -1.0910 o         1 MOL     -0.410204
      4 H1         -5.6430    0.2350   -4.0670 hc        1 MOL      0.140372
      5 H2         -5.4240    1.9990   -4.1610 hc        1 MOL      0.140372
      6 H3         -4.2750    1.0080   -3.2310 hc        1 MOL      0.140372
      7 N1         -7.5840    1.3200   -2.3700 n         1 MOL     -0.704711
      8 C3         -8.5970    1.4730   -1.3270 c3        1 MOL      0.179494
      9 C4         -8.6660    0.3200   -0.3010 c         1 MOL      0.310356
     10 O2         -9.2060    0.5030    0.8060 o         1 MOL     -0.486043
     11 C5         -8.3810    2.8110   -0.6240 c3        1 MOL     -0.246886
     12 C6         -8.1770    4.1040   -1.5120 c         1 MOL      0.726517
     13 O3         -7.5400    5.0960   -1.0530 o         1 MOL     -0.662845
     14 O4         -8.7130    4.1820   -2.6320 o         1 MOL     -0.662845
     15 H4         -7.9360    1.4360   -3.3140 hn        1 MOL      0.343287
     16 H5         -9.5790    1.5730   -1.7930 h1        1 MOL      0.065641
     17 H6         -7.4850    2.6230   -0.0300 hc        1 MOL      0.063808
     18 H7         -9.1760    2.9010    0.1170 hc        1 MOL      0.063808
     19 N2         -7.9860   -0.7760   -0.5890 n         1 MOL     -0.190136
     20 C7         -7.7980   -1.8780    0.3670 c3        1 MOL      0.202511
     21 C8         -6.3410   -2.2420    0.7270 c         1 MOL      0.520793
     22 O5         -6.0910   -3.3520    1.1440 o         1 MOL     -0.585121
     23 C9         -8.5990   -3.1590   -0.1090 c3        1 MOL     -0.257530
     24 C10       -10.0500   -2.9290   -0.4790 c3        1 MOL      0.212251
     25 C11       -10.8300   -4.2330   -0.6580 c3        1 MOL     -0.172232
     26 C12       -12.2580   -4.0460   -0.0820 c3        1 MOL      0.190604
     27 N3        -13.2080   -5.1040   -0.4970 n4        1 MOL     -0.504203
     28 H8         -7.5450   -0.9260   -1.4930 hn        1 MOL      0.165435
     29 H9         -8.1750   -1.5120    1.3250 h1        1 MOL      0.043309
     30 H10        -8.6140   -3.8750    0.7100 hc        1 MOL      0.071268
     31 H11        -8.0870   -3.5230   -1.0060 hc        1 MOL      0.071268
     32 H12       -10.1810   -2.2360   -1.3050 hc        1 MOL     -0.040836
     33 H13       -10.4990   -2.3590    0.3360 hc        1 MOL     -0.040836
     34 H14       -10.3340   -5.0500   -0.1310 hc        1 MOL      0.052657
     35 H15       -10.8620   -4.4860   -1.7160 hc        1 MOL      0.052657
     36 H16       -12.6580   -3.0710   -0.3840 hx        1 MOL      0.064734
     37 H17       -12.3060   -3.9730    1.0060 hx        1 MOL      0.064734
     38 H18       -14.0020   -5.1970    0.1300 hn        1 MOL      0.347850
     39 H19       -13.4080   -4.8980   -1.4600 hn        1 MOL      0.347850
     40 H20       -12.7430   -5.9960   -0.3730 hn        1 MOL      0.347850
     41 N4         -5.4210   -1.4460    0.2490 n         1 MOL     -0.420099
     42 C13        -3.9190   -1.6450    0.3640 c3        1 MOL     -0.102924
     43 C14        -3.4750   -2.1010    1.8250 c         1 MOL      0.661080
     44 O6         -3.6070   -1.3960    2.8300 o         1 MOL     -0.533354
     45 C15        -3.1870   -0.4410   -0.0050 c3        1 MOL     -0.081857
     46 C16        -1.7370   -0.8290   -0.2400 c         1 MOL      0.703393
     47 O7         -1.3730   -1.4000   -1.2900 o         1 MOL     -0.751226
     48 O8         -0.8190   -0.6820    0.5950 o         1 MOL     -0.751226
     49 H21        -5.7090   -0.5420   -0.1070 hn        1 MOL      0.232576
     50 H22        -3.6070   -2.4710   -0.2780 h1        1 MOL      0.101727
     51 H23        -3.2870    0.3220    0.7720 hc        1 MOL      0.056089
     52 H24        -3.6270   -0.0620   -0.9340 hc        1 MOL      0.056089
     53 N5         -2.9050   -3.2860    1.9530 n         1 MOL     -0.286192
     54 C17        -2.4900   -3.9210    3.2240 c3        1 MOL     -0.185844
     55 C18        -1.4610   -3.0970    4.0720 c         1 MOL      0.546218
     56 O9         -1.4860   -3.2530    5.2690 o         1 MOL     -0.524929
     57 H25        -2.6770   -3.7860    1.1100 hn        1 MOL      0.237660
     58 H26        -2.1280   -4.9290    3.0400 h1        1 MOL      0.118904
     59 H27        -3.4030   -4.1020    3.7910 h1        1 MOL      0.118904
     60 N6         -0.8320   -1.9950    3.5540 n         1 MOL     -0.372446
     61 C19        -0.0160   -1.0230    4.3500 c3        1 MOL      0.032358
     62 C20        -0.5430    0.4260    4.1330 c         1 MOL      0.367742
     63 O10        -0.0260    1.3560    4.8170 o         1 MOL     -0.545950
     64 C21         1.4370   -1.1450    4.0080 c3        1 MOL     -0.233749
     65 C22         1.8930   -0.5470    2.6740 c         1 MOL      0.715872
     66 N7          2.2130    0.6920    2.6170 n         1 MOL     -0.546653
     67 O11         2.0910   -1.2650    1.6740 o         1 MOL     -0.755645
     68 H28        -0.9120   -1.8660    2.5550 hn        1 MOL      0.226521
     69 H29        -0.1730   -1.3640    5.3730 h1        1 MOL      0.134519
     70 H30         1.8590   -2.1480    4.1030 hc        1 MOL      0.093058
     71 H31         2.0370   -0.6500    4.7810 hc        1 MOL      0.093058
     72 H32         1.9460    1.3060    3.3650 hn        1 MOL      0.293062
     73 H33         2.2830    1.0530    1.6670 hn        1 MOL      0.293062
     74 N8         -1.5690    0.6010    3.3050 n         1 MOL      0.108132
     75 C23        -2.2030    1.8850    3.0770 c3        1 MOL     -0.570898
     76 C24        -1.4400    2.8180    2.1550 c         1 MOL      0.761698
     77 O12        -1.3780    4.0340    2.3990 o         1 MOL     -0.562681
     78 H34        -1.8990   -0.2900    2.9630 hn        1 MOL      0.077524
     79 H35        -2.5250    2.2940    4.0280 h1        1 MOL      0.214182
     80 H36        -3.0930    1.7850    2.4580 h1        1 MOL      0.214182
     81 N9         -0.7270    2.2280    1.1670 n         1 MOL     -0.614703
     82 C25        -0.0730    2.9680    0.0480 c3        1 MOL      0.332565
     83 C26         1.2830    2.2720   -0.2700 c         1 MOL      0.600795
     84 O13         1.3140    1.0220   -0.2260 o         1 MOL     -0.596390
     85 C27        -0.8460    3.0930   -1.2130 c3        1 MOL     -0.026508
     86 C28        -1.9830    4.0510   -1.1640 ca        1 MOL     -0.143308
     87 C29        -1.8330    5.3180   -1.5940 ca        1 MOL     -0.039426
     88 C30        -3.2180    3.5140   -0.7750 ca        1 MOL     -0.039426
     89 C31        -2.9170    6.1890   -1.6590 ca        1 MOL     -0.346950
     90 C32        -4.3810    4.3390   -0.8920 ca        1 MOL     -0.346950
     91 C33        -4.1880    5.6940   -1.2880 ca        1 MOL      0.491496
     92 O14        -5.2510    6.5050   -1.4240 oh        1 MOL     -0.562796
     93 H37        -0.7840    1.2180    1.1520 hn        1 MOL      0.136696
     94 H38         0.2480    3.9590    0.3690 h1        1 MOL     -0.015027
     95 H39        -1.1020    2.0960   -1.5610 hc        1 MOL      0.008044
     96 H40        -0.0570    3.4380   -1.8830 hc        1 MOL      0.008044
     97 H41        -0.8930    5.7180   -1.9590 ha        1 MOL      0.077361
     98 H42        -3.2700    2.4610   -0.5270 ha        1 MOL      0.077361
     99 H43        -2.8130    7.2420   -1.8600 ha        1 MOL      0.156162
    100 H44        -5.3640    3.9450   -0.6870 ha        1 MOL      0.156162
    101 H45        -6.0760    6.0540   -1.2420 ho        1 MOL      0.407780
    102 N10         2.3440    3.0110   -0.5740 n         1 MOL     -0.655195
    103 C34         3.6690    2.3650   -1.0310 c3        1 MOL      0.520706
    104 C35         4.6480    2.0520    0.1940 c         1 MOL     -0.174824
    105 O15         5.1920    0.9480    0.2670 o         1 MOL     -0.070112
    106 C36         4.4450    3.2920   -2.0270 c3        1 MOL      0.037701
    107 C37         3.6480    3.7970   -3.1940 c3        1 MOL      0.048656
    108 C38         5.8060    2.5720   -2.3770 c3        1 MOL     -0.202382
    109 C39         3.3300    2.7090   -4.2040 c3        1 MOL     -0.192678
    110 H46         2.2940    4.0220   -0.6080 hn        1 MOL      0.317024
    111 H47         3.3760    1.4620   -1.5700 h1        1 MOL     -0.041364
    112 H48         4.6970    4.2020   -1.4830 hc        1 MOL     -0.047856
    113 H49         4.1450    4.5740   -3.7750 hc        1 MOL      0.003893
    114 H50         2.7460    4.3200   -2.8680 hc        1 MOL      0.003893
    115 H51         6.5380    2.8940   -1.6390 hc        1 MOL      0.067877
    116 H52         5.7190    1.4870   -2.4480 hc        1 MOL      0.067877
    117 H53         6.2480    2.9970   -3.2800 hc        1 MOL      0.067877
    118 H54         4.2130    2.0990   -4.3710 hc        1 MOL      0.056616
    119 H55         2.5200    2.0750   -3.8390 hc        1 MOL      0.056616
    120 H56         2.9950    3.1250   -5.1500 hc        1 MOL      0.056616
    121 N11         4.8550    3.0080    1.1480 n         1 MOL     -0.093356
    122 C40         5.4860    2.7060    2.4750 c3        1 MOL     -0.308448
    123 C41         6.8380    2.0390    2.3010 c         1 MOL      0.620168
    124 O16         7.2250    1.1410    3.0330 o         1 MOL     -0.524554
    125 C42         5.6260    4.0160    3.2640 c3        1 MOL      0.371483
    126 O17         6.2720    5.0350    2.6470 oh        1 MOL     -0.609318
    127 H57         4.4990    3.9460    1.0960 hn        1 MOL      0.217391
    128 H58         4.8540    2.0300    3.0480 h1        1 MOL      0.100771
    129 H59         6.0700    3.8240    4.2390 h1        1 MOL      0.019082
    130 H60         4.6570    4.4240    3.5580 h1        1 MOL      0.019082
    131 H61         5.6770    5.3650    1.9620 ho        1 MOL      0.387130
    132 N12         7.5820    2.4260    1.2720 n         1 MOL     -0.383929
    133 C43         8.8460    1.8030    0.9000 c3        1 MOL      0.266337
    134 C44         8.8410    0.2210    0.7430 c         1 MOL      0.466251
    135 O18         9.8990   -0.4310    0.8300 o         1 MOL     -0.548422
    136 C45        10.0020    2.3490    1.8030 c3        1 MOL     -0.193131
    137 H62         7.2100    3.2000    0.7400 hn        1 MOL      0.205944
    138 H63         9.0750    2.0390   -0.1370 h1        1 MOL      0.012725
    139 H64        10.1650    1.8030    2.7290 hc        1 MOL      0.054126
    140 H65        10.8960    2.2940    1.1910 hc        1 MOL      0.054126
    141 H66         9.8580    3.4120    1.9770 hc        1 MOL      0.054126
    142 N13         7.6570   -0.3400    0.4930 n         1 MOL     -0.232631
    143 C46         7.5180   -1.7150    0.3610 c3        1 MOL      0.196517
    144 C47         7.0520   -2.2540   -1.0330 c         1 MOL      0.320240
    145 O19         6.5800   -1.4170   -1.7970 o         1 MOL     -0.436867
    146 C48         6.5840   -2.1600    1.5230 c3        1 MOL     -0.260053
    147 H67         6.8070    0.2200    0.4870 hn        1 MOL     -0.065426
    148 H68         8.4640   -2.1500    0.6810 h1        1 MOL      0.040573
    149 H69         5.5650   -1.7700    1.4060 hc        1 MOL      0.092420
    150 H70         6.3700   -3.2310    1.5370 hc        1 MOL      0.092420
    151 H71         7.0210   -1.8430    2.4700 hc        1 MOL      0.092420
    152 N14         7.1300   -3.5690   -1.2840 n         1 MOL     -0.497104
    153 C49         6.5730   -4.2810   -2.4090 c3        1 MOL     -0.028422
    154 C50         6.9740   -3.7310   -3.7590 c         1 MOL      0.413471
    155 O20         6.2210   -3.9010   -4.7180 o         1 MOL     -0.486600
    156 C51         5.0760   -4.4830   -2.2060 c3        1 MOL     -0.021076
    157 C52         4.5610   -4.9460   -0.8640 c3        1 MOL      0.028201
    158 C53         3.0760   -4.8640   -0.7230 c         1 MOL      0.598219
    159 O21         2.5790   -3.7050   -0.4520 o         1 MOL     -0.681469
    160 O22         2.4540   -5.9940   -0.6610 o         1 MOL     -0.681469
    161 H72         7.6610   -4.1360   -0.6480 hn        1 MOL      0.325463
    162 H73         7.0150   -5.2730   -2.3730 h1        1 MOL      0.091733
    163 H74         4.7520   -5.2580   -2.9040 hc        1 MOL      0.040724
    164 H75         4.6500   -3.5920   -2.6580 hc        1 MOL      0.040724
    165 H76         5.0700   -4.4110   -0.0550 hc        1 MOL     -0.007232
    166 H77         4.8460   -5.9690   -0.6220 hc        1 MOL     -0.007232
    167 N15         8.1030   -2.9970   -3.9230 n         1 MOL     -0.247481
    168 C54         8.5300   -2.1000   -4.9960 c3        1 MOL     -0.191249
    169 H78         9.2230   -1.3590   -4.5960 h1        1 MOL      0.097677
    170 H79         9.0260   -2.6770   -5.7770 h1        1 MOL      0.097677
    171 H80         7.6600   -1.5930   -5.4150 h1        1 MOL      0.097677
    172 H81         8.8200   -2.9710   -3.2060 hn        1 MOL      0.241735
    173 Ca1         1.3050   -1.5160   -0.7570 Ca        1 MOL      1.817870
    174 O23         3.9580   -1.0120   -1.0910 oh        1 MOL     -0.870849
    175 H82         4.3470   -0.2960   -0.5920 ho        1 MOL      0.421223
    176 H83         4.6810   -1.3730   -1.6000 ho        1 MOL      0.421223
    177 O24         1.1090   -0.0930   -3.2690 oh        1 MOL     -0.870849
    178 H84         0.8610   -0.7780   -3.8790 ho        1 MOL      0.421223
    179 H85         0.5350    0.6450   -3.4900 ho        1 MOL      0.421223
    180 O25        -0.1520   -3.9740    0.2740 oh        1 MOL     -0.870849
    181 H86         0.7180   -4.3430    0.4210 ho        1 MOL      0.421223
    182 H87        -0.6880   -4.7110   -0.0200 ho        1 MOL      0.421223
    183 O26         0.7190   -3.3180   -2.7680 oh        1 MOL     -0.870849
    184 H88         1.1790   -3.7800   -3.4760 ho        1 MOL      0.421223
    185 H89        -0.2020   -3.4140   -2.9840 ho        1 MOL      0.421223
@<TRIPOS>BOND
     1    1    2 1   
     2    1    4 1   
     3    1    5 1   
     4    1    6 1   
     5    2    3 2   
     6    2    7 1   
     7    7    8 1   
     8    7   15 1   
     9    8    9 1   
    10    8   11 1   
    11    8   16 1   
    12    9   10 2   
    13    9   19 1   
    14   11   12 1   
    15   11   17 1   
    16   11   18 1   
    17   12   13 1   
    18   12   14 1   
    19   19   20 1   
    20   19   28 1   
    21   20   21 1   
    22   20   23 1   
    23   20   29 1   
    24   21   22 2   
    25   21   41 1   
    26   23   24 1   
    27   23   30 1   
    28   23   31 1   
    29   24   25 1   
    30   24   32 1   
    31   24   33 1   
    32   25   26 1   
    33   25   34 1   
    34   25   35 1   
    35   26   27 1   
    36   26   36 1   
    37   26   37 1   
    38   27   38 1   
    39   27   39 1   
    40   27   40 1   
    41   41   42 1   
    42   41   49 1   
    43   42   43 1   
    44   42   45 1   
    45   42   50 1   
    46   43   44 2   
    47   43   53 1   
    48   45   46 1   
    49   45   51 1   
    50   45   52 1   
    51   46   47 1   
    52   46   48 1   
    53   53   54 1   
    54   53   57 1   
    55   54   55 1   
    56   54   58 1   
    57   54   59 1   
    58   55   56 2   
    59   55   60 1   
    60   60   61 1   
    61   60   68 1   
    62   61   62 1   
    63   61   64 1   
    64   61   69 1   
    65   62   63 2   
    66   62   74 1   
    67   64   65 1   
    68   64   70 1   
    69   64   71 1   
    70   65   66 1   
    71   65   67 2   
    72   66   72 1   
    73   66   73 1   
    74   74   75 1   
    75   74   78 1   
    76   75   76 1   
    77   75   79 1   
    78   75   80 1   
    79   76   77 2   
    80   76   81 1   
    81   81   82 1   
    82   81   93 1   
    83   82   83 1   
    84   82   85 1   
    85   82   94 1   
    86   83   84 2   
    87   83  102 1   
    88   85   86 1   
    89   85   95 1   
    90   85   96 1   
    91   86   87 ar  
    92   86   88 ar  
    93   87   89 ar  
    94   87   97 1   
    95   88   90 ar  
    96   88   98 1   
    97   89   91 ar  
    98   89   99 1   
    99   90   91 ar  
   100   90  100 1   
   101   91   92 1   
   102   92  101 1   
   103  102  103 1   
   104  102  110 1   
   105  103  104 1   
   106  103  106 1   
   107  103  111 1   
   108  104  105 2   
   109  104  121 1   
   110  106  107 1   
   111  106  108 1   
   112  106  112 1   
   113  107  109 1   
   114  107  113 1   
   115  107  114 1   
   116  108  115 1   
   117  108  116 1   
   118  108  117 1   
   119  109  118 1   
   120  109  119 1   
   121  109  120 1   
   122  121  122 1   
   123  121  127 1   
   124  122  123 1   
   125  122  125 1   
   126  122  128 1   
   127  123  124 2   
   128  123  132 1   
   129  125  126 1   
   130  125  129 1   
   131  125  130 1   
   132  126  131 1   
   133  132  133 1   
   134  132  137 1   
   135  133  134 1   
   136  133  136 1   
   137  133  138 1   
   138  134  135 2   
   139  134  142 1   
   140  136  139 1   
   141  136  140 1   
   142  136  141 1   
   143  142  143 1   
   144  142  147 1   
   145  143  144 1   
   146  143  146 1   
   147  143  148 1   
   148  144  145 2   
   149  144  152 1   
   150  146  149 1   
   151  146  150 1   
   152  146  151 1   
   153  152  153 1   
   154  152  161 1   
   155  153  154 1   
   156  153  156 1   
   157  153  162 1   
   158  154  155 2   
   159  154  167 1   
   160  156  157 1   
   161  156  163 1   
   162  156  164 1   
   163  157  158 1   
   164  157  165 1   
   165  157  166 1   
   166  158  159 1   
   167  158  160 1   
   168  167  168 1   
   169  167  172 1   
   170  168  169 1   
   171  168  170 1   
   172  168  171 1   
   173  174  175 1   
   174  174  176 1   
   175  177  178 1   
   176  177  179 1   
   177  180  181 1   
   178  180  182 1   
   179  183  184 1   
   180  183  185 1   
@<TRIPOS>SUBSTRUCTURE
     1 MOL         1 TEMP              0 ****  ****    0 ROOT
