@<TRIPOS>MOLECULE
MOL
  186   183     1     0     0
SMALL
resp


@<TRIPOS>ATOM
      1 C1        -12.1000    5.7630    3.1450 c3        1 MOL     -0.446959
      2 C2        -12.0640    4.7830    1.9060 c         1 MOL      0.599639
      3 O1        -13.1540    4.3210    1.5640 o         1 MOL     -0.566608
      4 H1        -13.0480    5.6500    3.6700 hc        1 MOL      0.114745
      5 H2        -11.2790    5.5250    3.8210 hc        1 MOL      0.114745
      6 H3        -11.9990    6.7920    2.7980 hc        1 MOL      0.114745
      7 N1        -10.9020    4.5190    1.3620 n         1 MOL      0.030852
      8 C3        -10.6720    3.7480    0.1490 c3        1 MOL     -0.804470
      9 C4         -9.5700    2.7280    0.3350 c         1 MOL      0.576788
     10 O2         -8.6020    2.9720    1.1040 o         1 MOL     -0.556925
     11 C5        -10.4130    4.6890   -1.0390 c3        1 MOL      0.462503
     12 C6         -9.4120    5.8350   -0.7980 c         1 MOL      0.474693
     13 O3         -8.6320    5.7710    0.2220 o         1 MOL     -0.647366
     14 O4         -9.4210    6.8120   -1.5540 o         1 MOL     -0.647366
     15 H4        -10.0670    4.8760    1.8150 hn        1 MOL      0.064115
     16 H5        -11.5380    3.1760   -0.1860 h1        1 MOL      0.198387
     17 H6        -11.3330    5.0720   -1.4750 hc        1 MOL     -0.018374
     18 H7         -9.9340    4.0730   -1.7940 hc        1 MOL     -0.018374
     19 N2         -9.7350    1.4830   -0.2030 n         1 MOL     -0.061852
     20 C7         -9.1580    0.2070    0.2690 c3        1 MOL     -0.127350
     21 C8         -7.8880   -0.1080   -0.4370 c         1 MOL      0.334312
     22 O5         -7.4700   -1.2440   -0.5360 o         1 MOL     -0.409266
     23 C9        -10.2590   -0.8240   -0.0760 c3        1 MOL     -0.301147
     24 C10       -10.1950   -2.1120    0.7660 c3        1 MOL      0.045301
     25 C11       -10.8730   -3.2770    0.0120 c3        1 MOL     -0.029744
     26 C12       -10.9460   -4.5530    0.8770 c3        1 MOL     -0.124230
     27 N3         -9.5900   -5.0840    1.1950 n4        1 MOL     -0.214138
     28 H8        -10.5740    1.3120   -0.7400 hn        1 MOL      0.192203
     29 H9         -8.9620    0.2380    1.3310 h1        1 MOL      0.123006
     30 H10       -10.1000   -1.1120   -1.1160 hc        1 MOL      0.125474
     31 H11       -11.2760   -0.4410    0.0020 hc        1 MOL      0.125474
     32 H12       -10.7020   -2.0710    1.7300 hc        1 MOL      0.017131
     33 H13        -9.1260   -2.2870    0.9290 hc        1 MOL      0.017131
     34 H14       -10.3610   -3.4610   -0.9340 hc        1 MOL      0.061513
     35 H15       -11.8590   -2.8760   -0.2390 hc        1 MOL      0.061513
     36 H16       -11.5200   -5.2500    0.2540 hx        1 MOL      0.118145
     37 H17       -11.4980   -4.3130    1.7820 hx        1 MOL      0.118145
     38 H18        -9.0520   -5.1150    0.3490 hn        1 MOL      0.283544
     39 H19        -9.1350   -4.6000    1.9450 hn        1 MOL      0.283544
     40 H20        -9.7470   -6.0450    1.4640 hn        1 MOL      0.283544
     41 N4         -7.1750    0.9800   -0.8160 n         1 MOL      0.403176
     42 C13        -5.8000    1.0050   -1.2870 c3        1 MOL     -0.979583
     43 C14        -4.7190    1.3630   -0.2300 c         1 MOL      0.767979
     44 O6         -5.0130    2.1650    0.6350 o         1 MOL     -0.642915
     45 C15        -5.7940    1.8790   -2.5650 c3        1 MOL     -0.336176
     46 C16        -6.6390    3.1560   -2.4300 c         1 MOL      0.724307
     47 O7         -6.6380    3.6840   -1.3110 o         1 MOL     -0.633439
     48 O8         -7.1460    3.6680   -3.4260 o         1 MOL     -0.633439
     49 H21        -7.6000    1.8730   -0.6250 hn        1 MOL     -0.208103
     50 H22        -5.6420   -0.0350   -1.6020 h1        1 MOL      0.436407
     51 H23        -6.1500    1.2620   -3.3880 hc        1 MOL      0.157499
     52 H24        -4.8000    2.1720   -2.8820 hc        1 MOL      0.157499
     53 N5         -3.4490    0.9200   -0.3400 n         1 MOL     -0.498360
     54 C17        -2.9740   -0.0270   -1.3470 c3        1 MOL     -0.076557
     55 C18        -3.6220   -1.4200   -1.1680 c         1 MOL      0.546844
     56 O9         -4.0420   -1.7420   -0.0730 o         1 MOL     -0.520225
     57 H25        -2.7820    1.2210    0.3510 hn        1 MOL      0.359704
     58 H26        -1.8930    0.0380   -1.3420 h1        1 MOL      0.100203
     59 H27        -3.3200    0.3820   -2.2990 h1        1 MOL      0.100203
     60 N6         -3.8290   -2.0900   -2.2730 n         1 MOL     -0.481332
     61 C19        -4.5330   -3.3920   -2.3720 c3        1 MOL      0.014679
     62 C20        -3.5600   -4.5440   -2.0850 c         1 MOL      0.612491
     63 O10        -2.9800   -5.1450   -3.0270 o         1 MOL     -0.498830
     64 C21        -5.3390   -3.4320   -3.7080 c3        1 MOL     -0.167159
     65 C22        -6.2580   -4.6410   -3.9420 c         1 MOL      0.656117
     66 O11        -6.1850   -5.3010   -5.0290 o         1 MOL     -0.669459
     67 O12        -7.0050   -5.0780   -2.9770 o         1 MOL     -0.669459
     68 H28        -3.4880   -1.7360   -3.1460 hn        1 MOL      0.298060
     69 H29        -5.2940   -3.4090   -1.5910 h1        1 MOL     -0.048097
     70 H30        -4.5770   -3.4150   -4.4890 hc        1 MOL      0.043776
     71 H31        -5.9920   -2.5620   -3.6750 hc        1 MOL      0.043776
     72 N7         -3.3720   -4.8790   -0.8090 n         1 MOL     -0.331434
     73 C23        -2.6370   -6.1120   -0.4200 c3        1 MOL     -0.307948
     74 C24        -1.2050   -5.6670    0.0010 c         1 MOL      0.572588
     75 O13        -0.4670   -5.1430   -0.7960 o         1 MOL     -0.500690
     76 H32        -3.8480   -4.4170   -0.0580 hn        1 MOL      0.294186
     77 H33        -2.6340   -6.8950   -1.1920 h1        1 MOL      0.136777
     78 H34        -3.2150   -6.5490    0.3890 h1        1 MOL      0.136777
     79 N8         -0.9810   -5.6080    1.3210 n         1 MOL     -0.434714
     80 C25         0.2640   -5.1330    1.9340 c3        1 MOL     -0.134627
     81 C26         0.5320   -3.6890    1.6060 c         1 MOL      0.705911
     82 O14        -0.4310   -2.9020    1.5700 o         1 MOL     -0.532899
     83 C27         0.5550   -5.4550    3.4110 c3        1 MOL      0.312923
     84 C28        -0.6060   -4.8480    4.2160 c3        1 MOL     -0.240506
     85 O15         0.5430   -6.8740    3.6830 oh        1 MOL     -0.587738
     86 H35        -1.6740   -6.0600    1.9030 hn        1 MOL      0.292752
     87 H36         1.0080   -5.6630    1.3320 h1        1 MOL      0.067024
     88 H37         1.4970   -4.9240    3.5820 h1        1 MOL     -0.011653
     89 H38         1.3970   -7.2650    3.5020 ho        1 MOL      0.386076
     90 H39        -0.4390   -4.9670    5.2800 hc        1 MOL      0.070695
     91 H40        -0.7840   -3.8050    3.9300 hc        1 MOL      0.070695
     92 H41        -1.4810   -5.4300    3.9240 hc        1 MOL      0.070695
     93 N9          1.8030   -3.2980    1.3470 n         1 MOL     -0.530512
     94 C29         2.2230   -1.8640    1.2230 c3        1 MOL     -0.004202
     95 C30         3.4580   -1.7610    0.3960 c         1 MOL      0.731985
     96 O16         3.3470   -0.9720   -0.4920 o         1 MOL     -0.534513
     97 C31         2.5390   -1.2060    2.6230 c3        1 MOL     -0.118377
     98 C32         1.4860   -1.3730    3.7220 c3        1 MOL      0.172536
     99 C33         2.7020    0.2780    2.2840 c3        1 MOL     -0.097971
    100 C34         1.5370   -0.6480    5.0360 c3        1 MOL     -0.247804
    101 H42         2.5010   -4.0330    1.3370 hn        1 MOL      0.249827
    102 H43         1.3510   -1.3560    0.8010 h1        1 MOL      0.114764
    103 H44         3.4920   -1.5780    2.9880 hc        1 MOL      0.032155
    104 H45         1.3940   -2.4360    3.9700 hc        1 MOL     -0.005175
    105 H46         0.5420   -1.1440    3.2480 hc        1 MOL     -0.005175
    106 H47         1.8560    0.8050    1.8500 hc        1 MOL      0.039748
    107 H48         2.9950    0.8710    3.1460 hc        1 MOL      0.039748
    108 H49         3.5050    0.4880    1.5700 hc        1 MOL      0.039748
    109 H50         1.3900    0.4250    4.9840 hc        1 MOL      0.057789
    110 H51         0.7520   -1.0480    5.6800 hc        1 MOL      0.057789
    111 H52         2.5010   -0.8900    5.4870 hc        1 MOL      0.057789
    112 N10         4.5230   -2.6660    0.5980 n         1 MOL     -0.575416
    113 C35         5.7670   -2.6510   -0.1710 c3        1 MOL     -0.050052
    114 C36         6.9670   -2.7170    0.7420 c         1 MOL      0.730630
    115 O17         6.8380   -3.0940    1.9180 o         1 MOL     -0.560686
    116 C37         5.7430   -3.8830   -1.1040 c3        1 MOL      0.242493
    117 C38         4.7200   -3.5710   -2.1500 c3        1 MOL     -0.326818
    118 O18         6.9420   -4.0180   -1.8550 oh        1 MOL     -0.670879
    119 H53         4.5450   -3.2070    1.4440 hn        1 MOL      0.293190
    120 H54         5.8480   -1.7410   -0.7590 h1        1 MOL      0.103535
    121 H55         5.5190   -4.7770   -0.5130 h1        1 MOL      0.039943
    122 H56         6.7850   -4.7530   -2.4480 ho        1 MOL      0.431099
    123 H57         4.8220   -2.6380   -2.7110 hc        1 MOL      0.105035
    124 H58         4.8850   -4.3310   -2.9200 hc        1 MOL      0.105035
    125 H59         3.7200   -3.5820   -1.7430 hc        1 MOL      0.105035
    126 N11         8.1480   -2.3540    0.2700 n         1 MOL     -0.634444
    127 C39         9.4120   -2.3970    0.9800 c3        1 MOL     -0.143213
    128 C40         9.7460   -0.9610    1.3950 c         1 MOL      0.762877
    129 O19         9.9500   -0.6250    2.4980 o         1 MOL     -0.572308
    130 C41        10.4030   -3.1900    0.1530 c3        1 MOL      0.472544
    131 C42        11.7880   -3.3990    0.7120 c3        1 MOL     -0.395933
    132 O20        10.5610   -2.4290   -1.0360 oh        1 MOL     -0.679284
    133 H60         8.1940   -2.2070   -0.7310 hn        1 MOL      0.352656
    134 H61         9.2190   -3.0470    1.8410 h1        1 MOL      0.113094
    135 H62        10.0320   -4.1600   -0.1820 h1        1 MOL      0.014580
    136 H63        10.6090   -3.0240   -1.7820 ho        1 MOL      0.403965
    137 H64        11.6420   -3.5260    1.7890 hc        1 MOL      0.096680
    138 H65        12.2150   -4.3730    0.4710 hc        1 MOL      0.096680
    139 H66        12.4500   -2.5570    0.5170 hc        1 MOL      0.096680
    140 N12         9.8550   -0.0470    0.4020 n         1 MOL     -0.447890
    141 C43        10.1460    1.3660    0.6270 c3        1 MOL     -0.012403
    142 C44         9.3830    2.3010   -0.3240 c         1 MOL      0.473203
    143 O21         8.9980    1.9310   -1.4360 o         1 MOL     -0.519672
    144 C45        11.6110    1.6390    0.7510 c3        1 MOL     -0.072948
    145 C46        12.3680    1.8410   -0.5830 c3        1 MOL     -0.056478
    146 C47        12.3980    0.7080   -1.5720 c3        1 MOL     -0.015639
    147 C48        13.0440    1.2620   -2.8910 c3        1 MOL     -0.080541
    148 N13        13.8520    0.3150   -3.5270 n4        1 MOL     -0.160663
    149 H67         9.8100   -0.4380   -0.5200 hn        1 MOL      0.227598
    150 H68         9.6850    1.6340    1.5820 h1        1 MOL      0.088253
    151 H69        12.0870    0.9090    1.3960 hc        1 MOL      0.055306
    152 H70        11.7450    2.5590    1.3230 hc        1 MOL      0.055306
    153 H71        13.3630    2.1230   -0.2290 hc        1 MOL      0.013008
    154 H72        11.9350    2.7180   -1.0570 hc        1 MOL      0.013008
    155 H73        11.3810    0.3660   -1.7540 hc        1 MOL      0.063368
    156 H74        12.8820   -0.1730   -1.1670 hc        1 MOL      0.063368
    157 H75        13.7520    2.0470   -2.6180 hx        1 MOL      0.125958
    158 H76        12.2410    1.6750   -3.4920 hx        1 MOL      0.125958
    159 H77        14.4100   -0.1740   -2.8460 hn        1 MOL      0.221781
    160 H78        13.3760   -0.4710   -3.9380 hn        1 MOL      0.221781
    161 H79        14.4480    0.7520   -4.2120 hn        1 MOL      0.221781
    162 N14         9.1480    3.5400    0.0480 n         1 MOL     -0.347354
    163 C49         8.3740    4.4810   -0.6340 c3        1 MOL      0.423413
    164 C50         6.8330    4.2190   -0.5900 c         1 MOL      0.274068
    165 O22         6.3060    4.1100   -1.6660 o         1 MOL     -0.502649
    166 C51         8.6450    6.0100   -0.2690 c3        1 MOL     -0.035529
    167 C52        10.1100    6.4170   -0.6100 c3        1 MOL     -0.239921
    168 C53        10.4330    7.8670   -0.3470 c         1 MOL      0.770610
    169 O23         9.6130    8.6060    0.1950 o         1 MOL     -0.674147
    170 O24        11.5300    8.3590   -0.6510 o         1 MOL     -0.674147
    171 H80         9.5650    3.8370    0.9240 hn        1 MOL      0.234162
    172 H81         8.5860    4.3990   -1.7000 h1        1 MOL     -0.022704
    173 H82         8.3870    6.0990    0.7950 hc        1 MOL      0.034276
    174 H83         8.0040    6.5850   -0.9270 hc        1 MOL      0.034276
    175 H84        10.3560    6.1930   -1.6480 hc        1 MOL      0.015994
    176 H85        10.7520    5.7330   -0.0600 hc        1 MOL      0.015994
    177 N15         6.1230    3.9890    0.5280 n         1 MOL     -0.313433
    178 C54         6.5120    4.1770    1.9420 c3        1 MOL     -0.095115
    179 H86         5.6160    4.2800    2.5540 h1        1 MOL      0.053294
    180 H87         7.0850    3.3130    2.2790 h1        1 MOL      0.053294
    181 H88         7.1210    5.0770    2.0360 h1        1 MOL      0.053294
    182 H89         5.1650    3.6850    0.3930 hn        1 MOL      0.287297
    183 Ca1        -6.3550    4.4080    1.0750 Ca        1 MOL      1.674998
    184 O25        -3.8900    4.3740    2.0740 oh        1 MOL     -0.742047
    185 H90        -3.6310    5.2200    1.7210 ho        1 MOL      0.375133
    186 H91        -3.0640    3.8840    2.1490 ho        1 MOL      0.375133
@<TRIPOS>BOND
     1    1    2 1   
     2    1    4 1   
     3    1    5 1   
     4    1    6 1   
     5    2    3 2   
     6    2    7 1   
     7    7    8 1   
     8    7   15 1   
     9    8    9 1   
    10    8   11 1   
    11    8   16 1   
    12    9   10 2   
    13    9   19 1   
    14   11   12 1   
    15   11   17 1   
    16   11   18 1   
    17   12   13 1   
    18   12   14 1   
    19   19   20 1   
    20   19   28 1   
    21   20   21 1   
    22   20   23 1   
    23   20   29 1   
    24   21   22 2   
    25   21   41 1   
    26   23   24 1   
    27   23   30 1   
    28   23   31 1   
    29   24   25 1   
    30   24   32 1   
    31   24   33 1   
    32   25   26 1   
    33   25   34 1   
    34   25   35 1   
    35   26   27 1   
    36   26   36 1   
    37   26   37 1   
    38   27   38 1   
    39   27   39 1   
    40   27   40 1   
    41   41   42 1   
    42   41   49 1   
    43   42   43 1   
    44   42   45 1   
    45   42   50 1   
    46   43   44 2   
    47   43   53 1   
    48   45   46 1   
    49   45   51 1   
    50   45   52 1   
    51   46   47 1   
    52   46   48 1   
    53   53   54 1   
    54   53   57 1   
    55   54   55 1   
    56   54   58 1   
    57   54   59 1   
    58   55   56 2   
    59   55   60 1   
    60   60   61 1   
    61   60   68 1   
    62   61   62 1   
    63   61   64 1   
    64   61   69 1   
    65   62   63 2   
    66   62   72 1   
    67   64   65 1   
    68   64   70 1   
    69   64   71 1   
    70   65   66 1   
    71   65   67 1   
    72   72   73 1   
    73   72   76 1   
    74   73   74 1   
    75   73   77 1   
    76   73   78 1   
    77   74   75 2   
    78   74   79 1   
    79   79   80 1   
    80   79   86 1   
    81   80   81 1   
    82   80   83 1   
    83   80   87 1   
    84   81   82 2   
    85   81   93 1   
    86   83   84 1   
    87   83   85 1   
    88   83   88 1   
    89   84   90 1   
    90   84   91 1   
    91   84   92 1   
    92   85   89 1   
    93   93   94 1   
    94   93  101 1   
    95   94   95 1   
    96   94   97 1   
    97   94  102 1   
    98   95   96 2   
    99   95  112 1   
   100   97   98 1   
   101   97   99 1   
   102   97  103 1   
   103   98  100 1   
   104   98  104 1   
   105   98  105 1   
   106   99  106 1   
   107   99  107 1   
   108   99  108 1   
   109  100  109 1   
   110  100  110 1   
   111  100  111 1   
   112  112  113 1   
   113  112  119 1   
   114  113  114 1   
   115  113  116 1   
   116  113  120 1   
   117  114  115 2   
   118  114  126 1   
   119  116  117 1   
   120  116  118 1   
   121  116  121 1   
   122  117  123 1   
   123  117  124 1   
   124  117  125 1   
   125  118  122 1   
   126  126  127 1   
   127  126  133 1   
   128  127  128 1   
   129  127  130 1   
   130  127  134 1   
   131  128  129 2   
   132  128  140 1   
   133  130  131 1   
   134  130  132 1   
   135  130  135 1   
   136  131  137 1   
   137  131  138 1   
   138  131  139 1   
   139  132  136 1   
   140  140  141 1   
   141  140  149 1   
   142  141  142 1   
   143  141  144 1   
   144  141  150 1   
   145  142  143 2   
   146  142  162 1   
   147  144  145 1   
   148  144  151 1   
   149  144  152 1   
   150  145  146 1   
   151  145  153 1   
   152  145  154 1   
   153  146  147 1   
   154  146  155 1   
   155  146  156 1   
   156  147  148 1   
   157  147  157 1   
   158  147  158 1   
   159  148  159 1   
   160  148  160 1   
   161  148  161 1   
   162  162  163 1   
   163  162  171 1   
   164  163  164 1   
   165  163  166 1   
   166  163  172 1   
   167  164  165 2   
   168  164  177 1   
   169  166  167 1   
   170  166  173 1   
   171  166  174 1   
   172  167  168 1   
   173  167  175 1   
   174  167  176 1   
   175  168  169 1   
   176  168  170 1   
   177  177  178 1   
   178  177  182 1   
   179  178  179 1   
   180  178  180 1   
   181  178  181 1   
   182  184  185 1   
   183  184  186 1   
@<TRIPOS>SUBSTRUCTURE
     1 MOL         1 TEMP              0 ****  ****    0 ROOT
