@<TRIPOS>MOLECULE
MOL
  185   180     1     0     0
SMALL
resp


@<TRIPOS>ATOM
      1 C1          6.1810   -0.8850    5.1760 c3        1 MOL     -0.283235
      2 C2          5.6670   -0.4530    3.7800 c         1 MOL      0.592287
      3 O1          4.4610   -0.2520    3.4150 o         1 MOL     -0.593773
      4 H1          5.9110   -1.9260    5.3560 hc        1 MOL      0.081882
      5 H2          7.2650   -0.7800    5.2140 hc        1 MOL      0.081882
      6 H3          5.7280   -0.2560    5.9420 hc        1 MOL      0.081882
      7 N1          6.6470   -0.2910    2.8390 n         1 MOL     -0.467851
      8 C3          6.2860    0.1850    1.4990 c3        1 MOL      0.111825
      9 C4          5.5460   -0.9110    0.6820 c         1 MOL      0.554012
     10 O2          4.7220   -0.6100   -0.1950 o         1 MOL     -0.516182
     11 C5          7.5560    0.7480    0.7620 c3        1 MOL     -0.176918
     12 C6          8.6900    1.3290    1.5830 c         1 MOL      0.717524
     13 O3          9.7420    0.6740    1.8120 o         1 MOL     -0.653071
     14 O4          8.5500    2.5170    2.0070 o         1 MOL     -0.653071
     15 H4          7.5570   -0.6630    3.0840 hn        1 MOL      0.268736
     16 H5          5.5760    1.0080    1.5800 h1        1 MOL      0.120905
     17 H6          7.2340    1.5760    0.1380 hc        1 MOL      0.036458
     18 H7          7.9470   -0.1300    0.2350 hc        1 MOL      0.036458
     19 N2          5.7300   -2.2570    1.0130 n         1 MOL     -0.512356
     20 C7          5.0210   -3.4710    0.4570 c3        1 MOL      0.034730
     21 C8          5.1620   -3.4680   -1.1010 c         1 MOL      0.468953
     22 O5          6.2020   -3.1830   -1.6710 o         1 MOL     -0.451218
     23 C9          5.5830   -4.7570    1.0310 c3        1 MOL      0.003887
     24 C10         5.5400   -4.6650    2.5430 c3        1 MOL     -0.002107
     25 C11         5.9110   -5.9590    3.1680 c3        1 MOL      0.065667
     26 C12         6.1340   -5.8560    4.6380 c3        1 MOL      0.114428
     27 N3          6.4040   -7.1900    5.0940 n4        1 MOL     -0.357999
     28 H8          6.3770   -2.4240    1.7640 hn        1 MOL      0.285287
     29 H9          3.9820   -3.4340    0.8080 h1        1 MOL      0.005198
     30 H10         6.5660   -4.9880    0.6200 hc        1 MOL      0.037283
     31 H11         4.9600   -5.5410    0.5950 hc        1 MOL      0.037283
     32 H12         4.5680   -4.3320    2.9100 hc        1 MOL      0.006698
     33 H13         6.3220   -4.0090    2.9090 hc        1 MOL      0.006698
     34 H14         6.8370   -6.2940    2.7100 hc        1 MOL     -0.004535
     35 H15         5.1090   -6.6610    2.9230 hc        1 MOL     -0.004535
     36 H16         5.2410   -5.5000    5.1490 hx        1 MOL      0.049437
     37 H17         6.9790   -5.1950    4.8080 hx        1 MOL      0.049437
     38 H18         5.4980   -7.6470    5.0820 hn        1 MOL      0.280404
     39 H19         7.0950   -7.6390    4.5050 hn        1 MOL      0.280404
     40 H20         6.7450   -7.2050    6.0380 hn        1 MOL      0.280404
     41 N4          4.0460   -3.7200   -1.8660 n         1 MOL     -0.385295
     42 C13         3.9540   -3.7030   -3.3140 c3        1 MOL      0.033320
     43 C14         4.3230   -2.3220   -3.9440 c         1 MOL      0.383461
     44 O6          4.5730   -2.3200   -5.1840 o         1 MOL     -0.520688
     45 C15         2.4840   -4.1160   -3.6560 c3        1 MOL     -0.352268
     46 C16         1.4810   -3.2630   -2.8730 c         1 MOL      0.791637
     47 O7          1.3160   -2.0330   -2.9220 o         1 MOL     -0.743356
     48 O8          0.7790   -3.8400   -2.0040 o         1 MOL     -0.743356
     49 H21         3.2660   -4.0880   -1.3350 hn        1 MOL      0.226844
     50 H22         4.7180   -4.3700   -3.7120 h1        1 MOL      0.107285
     51 H23         2.3260   -5.1210   -3.2670 hc        1 MOL      0.114716
     52 H24         2.3340   -4.0260   -4.7420 hc        1 MOL      0.114716
     53 N5          4.2820   -1.2190   -3.2170 n         1 MOL     -0.070755
     54 C17         4.5110    0.1720   -3.7180 c3        1 MOL     -0.192948
     55 C18         5.9970    0.6100   -3.8580 c         1 MOL      0.718338
     56 O9          6.8130   -0.2200   -4.0540 o         1 MOL     -0.513814
     57 H25         4.0570   -1.2510   -2.2360 hn        1 MOL      0.127421
     58 H26         4.1030    0.7140   -2.8620 h1        1 MOL      0.090431
     59 H27         3.9420    0.3040   -4.6420 h1        1 MOL      0.090431
     60 N6          6.3470    1.9320   -3.7840 n         1 MOL     -0.802122
     61 C19         5.4300    2.9800   -3.3600 c3        1 MOL      0.661744
     62 C20         5.7990    3.4690   -1.9330 c         1 MOL      0.357975
     63 O10         6.8970    3.9980   -1.7780 o         1 MOL     -0.508671
     64 C21         5.4770    4.0800   -4.3780 c3        1 MOL     -0.487142
     65 C22         4.4130    5.0870   -4.1020 c         1 MOL      0.720697
     66 N7          4.2360    6.1600   -4.8610 n         1 MOL     -0.826283
     67 O11         3.6420    4.9980   -3.1670 o         1 MOL     -0.547453
     68 H28         7.3190    2.1100   -3.9950 hn        1 MOL      0.370106
     69 H29         4.4000    2.6350   -3.3170 h1        1 MOL     -0.090147
     70 H30         5.3320    3.6780   -5.3730 hc        1 MOL      0.119524
     71 H31         6.4640    4.5390   -4.3510 hc        1 MOL      0.119524
     72 H32         4.9550    6.3250   -5.5610 hn        1 MOL      0.371623
     73 H33         3.5730    6.8880   -4.6400 hn        1 MOL      0.371623
     74 N8          4.9380    3.3530   -0.8860 n         1 MOL     -0.345606
     75 C23         3.6930    2.5970   -0.9660 c3        1 MOL      0.001863
     76 C24         2.7130    3.0380    0.1060 c         1 MOL      0.542425
     77 O12         3.1400    3.6260    1.0940 o         1 MOL     -0.507433
     78 H34         5.2220    3.8360   -0.0450 hn        1 MOL      0.304972
     79 H35         4.0430    1.6250   -0.6050 h1        1 MOL      0.009063
     80 H36         3.0910    2.5360   -1.8670 h1        1 MOL      0.009063
     81 N9          1.4420    2.7520   -0.0650 n         1 MOL     -0.420455
     82 C25         0.4490    3.0400    1.0080 c3        1 MOL      0.024481
     83 C26        -0.6940    1.9740    1.1240 c         1 MOL      0.728996
     84 O13        -0.5820    0.8600    0.6050 o         1 MOL     -0.533716
     85 C27        -0.0400    4.4360    0.7190 c3        1 MOL     -0.329246
     86 C28        -0.8310    5.1550    1.8780 ca        1 MOL      0.015306
     87 C29        -2.0570    5.9040    1.7770 ca        1 MOL     -0.075174
     88 C30        -0.3450    4.9550    3.2140 ca        1 MOL     -0.075174
     89 C31        -2.6340    6.3670    2.9560 ca        1 MOL     -0.356207
     90 C32        -0.9890    5.3810    4.3750 ca        1 MOL     -0.356207
     91 C33        -2.1950    6.0990    4.2930 ca        1 MOL      0.460922
     92 O14        -2.7750    6.6020    5.4050 oh        1 MOL     -0.509180
     93 H37         1.0890    2.5230   -0.9830 hn        1 MOL      0.253386
     94 H38         0.9650    3.0000    1.9580 h1        1 MOL      0.082154
     95 H39        -0.7190    4.4040   -0.1340 hc        1 MOL      0.137130
     96 H40         0.7880    5.1120    0.4940 hc        1 MOL      0.137130
     97 H41        -2.4280    6.1880    0.8040 ha        1 MOL      0.135089
     98 H42         0.6440    4.5400    3.3340 ha        1 MOL      0.135089
     99 H43        -3.5360    6.9430    2.8200 ha        1 MOL      0.162171
    100 H44        -0.5570    5.1390    5.3340 ha        1 MOL      0.162171
    101 H45        -2.2040    6.4500    6.1640 ho        1 MOL      0.376070
    102 N10        -1.7800    2.2830    1.8570 n         1 MOL     -0.801613
    103 C34        -3.0440    1.5460    2.0180 c3        1 MOL      0.605884
    104 C35        -4.3320    2.1950    1.4250 c         1 MOL      0.509156
    105 O15        -4.4530    3.3740    1.1630 o         1 MOL     -0.543254
    106 C36        -3.2600    1.2020    3.4850 c3        1 MOL      0.109289
    107 C37        -2.0520    0.3770    3.9870 c3        1 MOL     -0.099915
    108 C38        -3.5020    2.3670    4.3790 c3        1 MOL     -0.229513
    109 C39        -1.8610   -0.9730    3.3290 c3        1 MOL     -0.013059
    110 H46        -1.7650    3.2300    2.1980 hn        1 MOL      0.307283
    111 H47        -2.9090    0.5910    1.5040 h1        1 MOL     -0.168041
    112 H48        -4.1750    0.6250    3.6500 hc        1 MOL     -0.002383
    113 H49        -2.1340    0.1950    5.0550 hc        1 MOL      0.026195
    114 H50        -1.1510    0.9890    3.9740 hc        1 MOL      0.026195
    115 H51        -3.5740    2.0470    5.4210 hc        1 MOL      0.042357
    116 H52        -2.7570    3.1500    4.2410 hc        1 MOL      0.042357
    117 H53        -4.4350    2.8070    4.0350 hc        1 MOL      0.042357
    118 H54        -2.8410   -1.3530    3.0330 hc        1 MOL     -0.000298
    119 H55        -1.2240   -0.8750    2.4560 hc        1 MOL     -0.000298
    120 H56        -1.5280   -1.7900    3.9720 hc        1 MOL     -0.000298
    121 N11        -5.3230    1.3750    1.2400 n         1 MOL     -0.478652
    122 C40        -6.6870    1.6980    0.8210 c3        1 MOL      0.145051
    123 C41        -6.9720    1.4880   -0.6430 c         1 MOL      0.527034
    124 O16        -6.3870    0.5590   -1.2440 o         1 MOL     -0.428074
    125 C42        -7.6650    1.0110    1.7140 c3        1 MOL     -0.110606
    126 O17        -7.4660   -0.3900    1.7650 oh        1 MOL     -0.460626
    127 H57        -5.1250    0.4270    1.5280 hn        1 MOL      0.264705
    128 H58        -6.8650    2.7680    0.9330 h1        1 MOL      0.046348
    129 H59        -8.6640    1.3230    1.3760 h1        1 MOL      0.072878
    130 H60        -7.5460    1.3550    2.7440 h1        1 MOL      0.072878
    131 H61        -8.3690   -0.6400    1.9650 ho        1 MOL      0.417577
    132 N12        -7.7910    2.3180   -1.3400 n         1 MOL     -0.465628
    133 C43        -8.3780    1.9500   -2.6050 c3        1 MOL      0.204988
    134 C44        -8.7760    0.4140   -2.7470 c         1 MOL      0.494050
    135 O18        -8.3310   -0.4080   -3.5180 o         1 MOL     -0.461713
    136 C45        -7.4460    2.4710   -3.7480 c3        1 MOL     -0.507918
    137 H62        -8.1880    3.1100   -0.8570 hn        1 MOL      0.285203
    138 H63        -9.3030    2.5270   -2.6380 h1        1 MOL      0.041524
    139 H64        -6.4480    2.0860   -3.5570 hc        1 MOL      0.150682
    140 H65        -7.8690    2.1640   -4.7010 hc        1 MOL      0.150682
    141 H66        -7.4220    3.5600   -3.7050 hc        1 MOL      0.150682
    142 N13        -9.7250    0.0530   -1.8930 n         1 MOL     -0.555659
    143 C46       -10.0830   -1.3230   -1.5210 c3        1 MOL      0.430515
    144 C47        -8.9880   -2.3510   -1.2490 c         1 MOL      0.150004
    145 O19        -9.3160   -3.5630   -1.3240 o         1 MOL     -0.460501
    146 C48       -11.1080   -1.8810   -2.4670 c3        1 MOL     -0.412587
    147 H67       -10.0250    0.7910   -1.2770 hn        1 MOL      0.239746
    148 H68       -10.5630   -1.2540   -0.5520 h1        1 MOL     -0.007782
    149 H69       -11.8470   -1.1380   -2.7870 hc        1 MOL      0.114884
    150 H70       -10.6160   -2.0390   -3.4190 hc        1 MOL      0.114884
    151 H71       -11.5910   -2.7820   -2.1010 hc        1 MOL      0.114884
    152 N14        -7.7370   -2.0370   -0.9610 n         1 MOL      0.041987
    153 C49        -6.7210   -3.0300   -0.5530 c3        1 MOL     -0.073139
    154 C50        -7.0720   -4.0110    0.6020 c         1 MOL      0.342502
    155 O20        -7.1450   -5.2200    0.2930 o         1 MOL     -0.490535
    156 C51        -5.4210   -2.3290   -0.1980 c3        1 MOL      0.231164
    157 C52        -4.2940   -3.3180    0.0680 c3        1 MOL     -0.095369
    158 C53        -2.8820   -2.6370   -0.0470 c         1 MOL      0.623035
    159 O21        -2.6970   -1.3740    0.0510 o         1 MOL     -0.711208
    160 O22        -1.8870   -3.3940   -0.3020 o         1 MOL     -0.711208
    161 H72        -7.4390   -1.0700   -1.0100 hn        1 MOL     -0.011579
    162 H73        -6.4550   -3.6850   -1.3950 h1        1 MOL      0.109603
    163 H74        -5.4260   -1.7610    0.7410 hc        1 MOL     -0.019290
    164 H75        -5.1110   -1.6800   -1.0200 hc        1 MOL     -0.019290
    165 H76        -4.4090   -4.1660   -0.6110 hc        1 MOL      0.004786
    166 H77        -4.5050   -3.7250    1.0620 hc        1 MOL      0.004786
    167 N15        -7.4220   -3.4830    1.7870 n         1 MOL      0.004327
    168 C54        -7.6920   -4.1280    3.0290 c3        1 MOL     -0.225459
    169 H78        -7.9240   -5.1780    2.8490 h1        1 MOL      0.087811
    170 H79        -6.8160   -4.0550    3.6740 h1        1 MOL      0.087811
    171 H80        -8.5420   -3.6470    3.5110 h1        1 MOL      0.087811
    172 H81        -7.6400   -2.4930    1.7690 hn        1 MOL      0.019870
    173 Ca1        -0.1890   -1.4690   -0.8420 Ca        1 MOL      1.785232
    174 O23         1.0920   -2.9780    1.0450 oh        1 MOL     -0.857575
    175 H82         1.3660   -3.8440    0.7280 ho        1 MOL      0.421925
    176 H83         1.5140   -2.8990    1.9060 ho        1 MOL      0.421925
    177 O24         0.2270    0.7580   -2.4370 oh        1 MOL     -0.857575
    178 H84         0.7380    0.6760   -3.2420 ho        1 MOL      0.421925
    179 H85        -0.0430    1.6720   -2.4140 ho        1 MOL      0.421925
    180 O25        -1.8680   -1.5120   -3.0230 oh        1 MOL     -0.857575
    181 H86        -2.3270   -0.8790   -3.5730 ho        1 MOL      0.421925
    182 H87        -1.6490   -2.2370   -3.6160 ho        1 MOL      0.421925
    183 O26         1.9870   -0.3060    0.1450 oh        1 MOL     -0.857575
    184 H88         2.9060   -0.5460    0.0280 ho        1 MOL      0.421925
    185 H89         1.9670    0.2230    0.9410 ho        1 MOL      0.421925
@<TRIPOS>BOND
     1    1    2 1   
     2    1    4 1   
     3    1    5 1   
     4    1    6 1   
     5    2    3 2   
     6    2    7 1   
     7    7    8 1   
     8    7   15 1   
     9    8    9 1   
    10    8   11 1   
    11    8   16 1   
    12    9   10 2   
    13    9   19 1   
    14   11   12 1   
    15   11   17 1   
    16   11   18 1   
    17   12   13 1   
    18   12   14 1   
    19   19   20 1   
    20   19   28 1   
    21   20   21 1   
    22   20   23 1   
    23   20   29 1   
    24   21   22 2   
    25   21   41 1   
    26   23   24 1   
    27   23   30 1   
    28   23   31 1   
    29   24   25 1   
    30   24   32 1   
    31   24   33 1   
    32   25   26 1   
    33   25   34 1   
    34   25   35 1   
    35   26   27 1   
    36   26   36 1   
    37   26   37 1   
    38   27   38 1   
    39   27   39 1   
    40   27   40 1   
    41   41   42 1   
    42   41   49 1   
    43   42   43 1   
    44   42   45 1   
    45   42   50 1   
    46   43   44 2   
    47   43   53 1   
    48   45   46 1   
    49   45   51 1   
    50   45   52 1   
    51   46   47 1   
    52   46   48 1   
    53   53   54 1   
    54   53   57 1   
    55   54   55 1   
    56   54   58 1   
    57   54   59 1   
    58   55   56 2   
    59   55   60 1   
    60   60   61 1   
    61   60   68 1   
    62   61   62 1   
    63   61   64 1   
    64   61   69 1   
    65   62   63 2   
    66   62   74 1   
    67   64   65 1   
    68   64   70 1   
    69   64   71 1   
    70   65   66 1   
    71   65   67 2   
    72   66   72 1   
    73   66   73 1   
    74   74   75 1   
    75   74   78 1   
    76   75   76 1   
    77   75   79 1   
    78   75   80 1   
    79   76   77 2   
    80   76   81 1   
    81   81   82 1   
    82   81   93 1   
    83   82   83 1   
    84   82   85 1   
    85   82   94 1   
    86   83   84 2   
    87   83  102 1   
    88   85   86 1   
    89   85   95 1   
    90   85   96 1   
    91   86   87 ar  
    92   86   88 ar  
    93   87   89 ar  
    94   87   97 1   
    95   88   90 ar  
    96   88   98 1   
    97   89   91 ar  
    98   89   99 1   
    99   90   91 ar  
   100   90  100 1   
   101   91   92 1   
   102   92  101 1   
   103  102  103 1   
   104  102  110 1   
   105  103  104 1   
   106  103  106 1   
   107  103  111 1   
   108  104  105 2   
   109  104  121 1   
   110  106  107 1   
   111  106  108 1   
   112  106  112 1   
   113  107  109 1   
   114  107  113 1   
   115  107  114 1   
   116  108  115 1   
   117  108  116 1   
   118  108  117 1   
   119  109  118 1   
   120  109  119 1   
   121  109  120 1   
   122  121  122 1   
   123  121  127 1   
   124  122  123 1   
   125  122  125 1   
   126  122  128 1   
   127  123  124 2   
   128  123  132 1   
   129  125  126 1   
   130  125  129 1   
   131  125  130 1   
   132  126  131 1   
   133  132  133 1   
   134  132  137 1   
   135  133  134 1   
   136  133  136 1   
   137  133  138 1   
   138  134  135 2   
   139  134  142 1   
   140  136  139 1   
   141  136  140 1   
   142  136  141 1   
   143  142  143 1   
   144  142  147 1   
   145  143  144 1   
   146  143  146 1   
   147  143  148 1   
   148  144  145 2   
   149  144  152 1   
   150  146  149 1   
   151  146  150 1   
   152  146  151 1   
   153  152  153 1   
   154  152  161 1   
   155  153  154 1   
   156  153  156 1   
   157  153  162 1   
   158  154  155 2   
   159  154  167 1   
   160  156  157 1   
   161  156  163 1   
   162  156  164 1   
   163  157  158 1   
   164  157  165 1   
   165  157  166 1   
   166  158  159 1   
   167  158  160 1   
   168  167  168 1   
   169  167  172 1   
   170  168  169 1   
   171  168  170 1   
   172  168  171 1   
   173  174  175 1   
   174  174  176 1   
   175  177  178 1   
   176  177  179 1   
   177  180  181 1   
   178  180  182 1   
   179  183  184 1   
   180  183  185 1   
@<TRIPOS>SUBSTRUCTURE
     1 MOL         1 TEMP              0 ****  ****    0 ROOT
