@<TRIPOS>MOLECULE
MOL
  188   182     1     0     0
SMALL
resp


@<TRIPOS>ATOM
      1 C1          4.6520   -0.0520    3.6110 c3        1 MOL     -0.257307
      2 C2          5.2700    0.0880    2.2250 c         1 MOL      0.473582
      3 O1          4.6630   -0.1480    1.2180 o         1 MOL     -0.435680
      4 H1          5.4440   -0.1230    4.3550 hc        1 MOL      0.060923
      5 H2          4.0320    0.8180    3.8210 hc        1 MOL      0.060923
      6 H3          4.0390   -0.9530    3.6460 hc        1 MOL      0.060923
      7 N1          6.5780    0.3460    2.2440 n         1 MOL     -0.457534
      8 C3          7.5220    0.2180    1.1430 c3        1 MOL      0.087887
      9 C4          7.3190   -1.1450    0.4450 c         1 MOL      0.214965
     10 O2          7.4530   -1.2470   -0.7940 o         1 MOL     -0.384914
     11 C5          7.3070    1.4030    0.2190 c3        1 MOL      0.032689
     12 C6          8.4460    1.6830   -0.7660 c         1 MOL      0.544237
     13 O3          9.5550    1.2160   -0.4350 o         1 MOL     -0.636003
     14 O4          8.2420    2.2320   -1.8920 o         1 MOL     -0.636003
     15 H4          6.9140    0.4710    3.1840 hn        1 MOL      0.298065
     16 H5          8.5410    0.2830    1.5090 h1        1 MOL     -0.065228
     17 H6          7.2230    2.2380    0.9180 hc        1 MOL      0.042783
     18 H7          6.3860    1.3810   -0.3630 hc        1 MOL      0.042783
     19 N2          6.9630   -2.2380    1.2130 n         1 MOL      0.019880
     20 C7          6.8180   -3.6260    0.7740 c3        1 MOL     -0.217633
     21 C8          5.5110   -4.0720    0.1100 c         1 MOL      0.536987
     22 O5          5.3920   -5.0780   -0.5630 o         1 MOL     -0.539599
     23 C9          7.1800   -4.5460    1.9470 c3        1 MOL     -0.326994
     24 C10         8.4670   -4.2840    2.6790 c3        1 MOL      0.364399
     25 C11         9.7530   -4.4350    1.7770 c3        1 MOL      0.072799
     26 C12        10.8270   -3.6220    2.4550 c3        1 MOL     -0.070585
     27 N3         10.6450   -2.1620    2.3900 n4        1 MOL     -0.325430
     28 H8          6.8020   -2.0160    2.1930 hn        1 MOL      0.172429
     29 H9          7.5740   -3.7770    0.0070 h1        1 MOL      0.132577
     30 H10         7.1750   -5.6160    1.7340 hc        1 MOL      0.101615
     31 H11         6.3950   -4.4040    2.6910 hc        1 MOL      0.101615
     32 H12         8.6540   -4.9420    3.5260 hc        1 MOL     -0.119924
     33 H13         8.4310   -3.2450    3.0220 hc        1 MOL     -0.119924
     34 H14         9.6250   -4.0510    0.7640 hc        1 MOL      0.030149
     35 H15        10.0660   -5.4750    1.7670 hc        1 MOL      0.030149
     36 H16        11.8160   -3.9370    2.1090 hx        1 MOL      0.097856
     37 H17        10.9070   -3.9670    3.4830 hx        1 MOL      0.097856
     38 H18        11.4550   -1.7370    2.8400 hn        1 MOL      0.300607
     39 H19        10.7560   -1.7950    1.4590 hn        1 MOL      0.300607
     40 H20         9.8510   -1.7460    2.8530 hn        1 MOL      0.300607
     41 N4          4.4860   -3.1910    0.1070 n         1 MOL     -0.314148
     42 C13         3.0880   -3.5020   -0.2630 c3        1 MOL      0.145217
     43 C14         2.7540   -2.9540   -1.7090 c         1 MOL      0.639265
     44 O6          3.3800   -1.9740   -2.1400 o         1 MOL     -0.514282
     45 C15         2.0980   -2.9860    0.7860 c3        1 MOL     -0.297584
     46 C16         0.6860   -3.5210    0.5080 c         1 MOL      0.774145
     47 O7         -0.2060   -3.0090    1.1900 o         1 MOL     -0.738108
     48 O8          0.5080   -4.5070   -0.1790 o         1 MOL     -0.738108
     49 H21         4.6730   -2.2460    0.4110 hn        1 MOL      0.131738
     50 H22         3.0050   -4.5900   -0.3750 h1        1 MOL      0.024619
     51 H23         2.0740   -1.8970    0.6820 hc        1 MOL      0.099035
     52 H24         2.4240   -3.2900    1.7820 hc        1 MOL      0.099035
     53 N5          1.8330   -3.5890   -2.4690 n         1 MOL     -0.587550
     54 C17         1.5760   -3.1690   -3.8890 c3        1 MOL     -0.035751
     55 C18         0.8140   -1.8860   -4.1230 c         1 MOL      0.422036
     56 O9          0.6090   -1.5820   -5.2740 o         1 MOL     -0.545554
     57 H25         1.0870   -4.0740   -1.9900 hn        1 MOL      0.321846
     58 H26         0.9920   -3.9300   -4.4130 h1        1 MOL      0.091153
     59 H27         2.5460   -3.0800   -4.3920 h1        1 MOL      0.091153
     60 N6          0.3140   -1.2040   -3.1180 n         1 MOL     -0.011594
     61 C19        -0.7040   -0.1860   -3.3540 c3        1 MOL     -0.315849
     62 C20        -0.1000    1.2400   -3.5150 c         1 MOL      0.536477
     63 O10        -0.8450    2.2050   -3.7540 o         1 MOL     -0.537780
     64 C21        -1.9020   -0.3250   -2.2790 c3        1 MOL     -0.180709
     65 C22        -2.4240   -1.7500   -2.0710 c         1 MOL      0.550443
     66 N7         -3.5370   -2.0600   -2.6100 n         1 MOL     -0.582668
     67 O11        -1.7750   -2.5050   -1.3820 o         1 MOL     -0.607388
     68 H28         0.5060   -1.5870   -2.2030 hn        1 MOL      0.166050
     69 H29        -1.1240   -0.3500   -4.3410 h1        1 MOL      0.168099
     70 H30        -2.7410    0.3380   -2.5340 hc        1 MOL      0.115104
     71 H31        -1.6170   -0.0170   -1.2680 hc        1 MOL      0.115104
     72 H32        -3.9750   -1.3540   -3.1910 hn        1 MOL      0.304576
     73 H33        -3.9580   -2.9530   -2.3950 hn        1 MOL      0.304576
     74 N8          1.1960    1.4290   -3.3240 n         1 MOL     -0.248694
     75 C23         2.0130    2.6940   -3.5310 c3        1 MOL     -0.154688
     76 C24         1.8850    3.6560   -2.3870 c         1 MOL      0.655251
     77 O12         1.7420    4.8740   -2.5720 o         1 MOL     -0.558267
     78 H34         1.6440    0.6210   -2.9030 hn        1 MOL      0.173373
     79 H35         1.7810    3.1700   -4.4790 h1        1 MOL      0.116667
     80 H36         3.0300    2.3150   -3.6050 h1        1 MOL      0.116667
     81 N9          1.9360    3.1390   -1.1620 n         1 MOL     -0.432117
     82 C25         1.6300    3.8610    0.0960 c3        1 MOL      0.338562
     83 C26         0.5950    3.0690    0.8630 c         1 MOL      0.262394
     84 O13         0.5590    1.8380    0.6560 o         1 MOL     -0.451492
     85 C27         2.9270    4.1930    0.8580 c3        1 MOL     -0.191141
     86 C28         3.8630    5.2690    0.3210 ca        1 MOL     -0.004589
     87 C29         4.9820    4.8240   -0.3920 ca        1 MOL     -0.086764
     88 C30         3.5190    6.6120    0.4460 ca        1 MOL     -0.086764
     89 C31         5.8850    5.7490   -0.8570 ca        1 MOL     -0.300540
     90 C32         4.4900    7.5050   -0.0490 ca        1 MOL     -0.300540
     91 C33         5.6980    7.0940   -0.6830 ca        1 MOL      0.378501
     92 O14         6.5310    8.0420   -1.1530 oh        1 MOL     -0.435485
     93 H37         2.0930    2.1480   -1.0470 hn        1 MOL      0.248025
     94 H38         1.2320    4.8280   -0.2070 h1        1 MOL     -0.012322
     95 H39         3.5440    3.2960    0.9340 hc        1 MOL      0.058604
     96 H40         2.6810    4.6820    1.8000 hc        1 MOL      0.058604
     97 H41         5.1410    3.7690   -0.5390 ha        1 MOL      0.091898
     98 H42         2.6010    6.9280    0.9120 ha        1 MOL      0.091898
     99 H43         6.6540    5.4410   -1.5500 ha        1 MOL      0.151282
    100 H44         4.3990    8.5430    0.2340 ha        1 MOL      0.151282
    101 H45         6.2060    8.9140   -0.9510 ho        1 MOL      0.311647
    102 N10        -0.1730    3.7970    1.7090 n         1 MOL     -0.253350
    103 C34        -1.4940    3.2790    2.2050 c3        1 MOL     -0.200535
    104 C35        -2.5600    3.3730    1.0360 c         1 MOL      0.743932
    105 O15        -3.3620    2.4870    0.8010 o         1 MOL     -0.631505
    106 C36        -1.9810    4.0050    3.5250 c3        1 MOL      0.059334
    107 C37        -0.9980    3.8210    4.7340 c3        1 MOL      0.053259
    108 C38        -3.3460    3.5240    4.0060 c3        1 MOL     -0.413684
    109 C39        -0.9550    2.3380    5.2330 c3        1 MOL     -0.072856
    110 H46         0.0440    4.7610    1.8980 hn        1 MOL      0.254364
    111 H47        -1.4700    2.2090    2.4100 h1        1 MOL      0.145137
    112 H48        -2.1680    5.0750    3.4210 hc        1 MOL      0.014472
    113 H49        -1.4200    4.3890    5.5640 hc        1 MOL     -0.017485
    114 H50         0.0240    4.1440    4.5490 hc        1 MOL     -0.017485
    115 H51        -3.5160    3.9240    5.0040 hc        1 MOL      0.125140
    116 H52        -4.1290    3.8410    3.3210 hc        1 MOL      0.125140
    117 H53        -3.3360    2.4360    4.0410 hc        1 MOL      0.125140
    118 H54        -0.5400    1.5980    4.5420 hc        1 MOL      0.031235
    119 H55        -0.2840    2.2400    6.0840 hc        1 MOL      0.031235
    120 H56        -1.9750    2.0050    5.4370 hc        1 MOL      0.031235
    121 N11        -2.5550    4.4560    0.3280 n         1 MOL     -0.399534
    122 C40        -3.3390    4.6810   -0.9270 c3        1 MOL     -0.006026
    123 C41        -4.8680    4.5890   -0.7270 c         1 MOL      0.254295
    124 O16        -5.6170    4.6020   -1.7310 o         1 MOL     -0.516865
    125 C42        -3.0260    6.1210   -1.4320 c3        1 MOL      0.258538
    126 O17        -1.6410    6.3310   -1.6810 oh        1 MOL     -0.610899
    127 H57        -1.8200    5.1350    0.4930 hn        1 MOL      0.199617
    128 H58        -3.1120    3.9720   -1.7220 h1        1 MOL      0.162927
    129 H59        -3.2280    6.8880   -0.6900 h1        1 MOL      0.023077
    130 H60        -3.5920    6.5020   -2.2700 h1        1 MOL      0.023077
    131 H61        -1.4300    7.2630   -1.5230 ho        1 MOL      0.403778
    132 N12        -5.3750    4.5320    0.4760 n         1 MOL     -0.180031
    133 C43        -6.7720    4.4060    0.9880 c3        1 MOL     -0.047687
    134 C44        -7.4490    3.0110    0.6710 c         1 MOL      0.516534
    135 O18        -8.4510    2.7170    1.3090 o         1 MOL     -0.530004
    136 C45        -7.6080    5.6620    0.6070 c3        1 MOL     -0.211224
    137 H62        -4.7510    4.5300    1.2720 hn        1 MOL      0.159676
    138 H63        -6.6230    4.3520    2.0630 h1        1 MOL      0.102559
    139 H64        -8.6160    5.6560    1.0110 hc        1 MOL      0.082839
    140 H65        -7.2630    6.6400    0.9460 hc        1 MOL      0.082839
    141 H66        -7.7310    5.8370   -0.4640 hc        1 MOL      0.082839
    142 N13        -6.8560    2.2080   -0.2040 n         1 MOL     -0.385727
    143 C46        -7.2500    0.9030   -0.7440 c3        1 MOL      0.101989
    144 C47        -7.1340   -0.3000    0.1660 c         1 MOL      0.600789
    145 O19        -6.2900   -0.3410    1.0640 o         1 MOL     -0.519216
    146 C48        -6.3850    0.6740   -2.0760 c3        1 MOL     -0.190666
    147 H67        -5.9790    2.5350   -0.5840 hn        1 MOL      0.322646
    148 H68        -8.2900    0.9910   -1.0480 h1        1 MOL      0.051225
    149 H69        -6.5170    1.5300   -2.7300 hc        1 MOL      0.065258
    150 H70        -5.3540    0.5010   -1.7950 hc        1 MOL      0.065258
    151 H71        -6.7000   -0.2060   -2.6510 hc        1 MOL      0.065258
    152 N14        -8.1020   -1.2540   -0.0400 n         1 MOL     -0.683187
    153 C49        -8.3040   -2.5700    0.6800 c3        1 MOL     -0.017953
    154 C50        -8.6430   -2.5070    2.2860 c         1 MOL      0.297929
    155 O20        -8.7070   -3.5860    2.9020 o         1 MOL     -0.493007
    156 C51        -7.1010   -3.5260    0.3560 c3        1 MOL      0.045583
    157 C52        -6.6510   -3.4630   -1.1220 c3        1 MOL     -0.007059
    158 C53        -5.7690   -4.6800   -1.5010 c         1 MOL      0.558340
    159 O21        -6.3390   -5.7870   -1.7910 o         1 MOL     -0.660045
    160 O22        -4.5350   -4.5720   -1.4660 o         1 MOL     -0.660045
    161 H72        -8.8780   -1.0350   -0.6600 hn        1 MOL      0.349414
    162 H73        -9.1550   -3.1400    0.3010 h1        1 MOL      0.125339
    163 H74        -7.4110   -4.5600    0.4650 hc        1 MOL      0.030614
    164 H75        -6.3030   -3.4180    1.1030 hc        1 MOL      0.030614
    165 H76        -5.9780   -2.6200   -1.2590 hc        1 MOL     -0.002578
    166 H77        -7.4890   -3.3920   -1.8060 hc        1 MOL     -0.002578
    167 N15        -8.6990   -1.2960    2.8790 n         1 MOL     -0.098410
    168 C54        -8.8290   -1.1100    4.2680 c3        1 MOL     -0.082600
    169 H78        -8.8650   -2.0810    4.7620 h1        1 MOL      0.059173
    170 H79        -7.9750   -0.5440    4.6400 h1        1 MOL      0.059173
    171 H80        -9.7480   -0.5620    4.4760 h1        1 MOL      0.059173
    172 H81        -8.6610   -0.5360    2.2120 hn        1 MOL      0.197422
    173 Ca1        -2.1420   -4.8470   -0.2160 Ca        1 MOL      1.727621
    174 O23        -1.4240   -5.2010   -2.7720 oh        1 MOL     -0.846841
    175 H82        -0.6370   -5.7030   -3.0000 ho        1 MOL      0.422042
    176 H83        -1.8230   -4.9840   -3.6070 ho        1 MOL      0.422042
    177 O24        -3.4560   -2.9600    1.2400 oh        1 MOL     -0.846841
    178 H84        -3.9850   -2.8850    2.0380 ho        1 MOL      0.422042
    179 H85        -3.4190   -2.0720    0.8930 ho        1 MOL      0.422042
    180 O25        -3.9610   -6.2730    1.3380 oh        1 MOL     -0.846841
    181 H86        -4.8270   -6.6600    1.2340 ho        1 MOL      0.422042
    182 H87        -3.6830   -6.5450    2.2200 ho        1 MOL      0.422042
    183 O26        -1.0920   -5.4440    2.1070 oh        1 MOL     -0.846841
    184 H88        -0.6610   -4.6250    2.3290 ho        1 MOL      0.422042
    185 H89        -0.9670   -5.9980    2.8740 ho        1 MOL      0.422042
    186 O27        -1.3900   -7.3310   -0.5810 oh        1 MOL     -0.846841
    187 H90        -0.9200   -8.0320   -0.1180 ho        1 MOL      0.422042
    188 H91        -1.8150   -7.7760   -1.3030 ho        1 MOL      0.422042
@<TRIPOS>BOND
     1    1    2 1   
     2    1    4 1   
     3    1    5 1   
     4    1    6 1   
     5    2    3 2   
     6    2    7 1   
     7    7    8 1   
     8    7   15 1   
     9    8    9 1   
    10    8   11 1   
    11    8   16 1   
    12    9   10 2   
    13    9   19 1   
    14   11   12 1   
    15   11   17 1   
    16   11   18 1   
    17   12   13 1   
    18   12   14 1   
    19   19   20 1   
    20   19   28 1   
    21   20   21 1   
    22   20   23 1   
    23   20   29 1   
    24   21   22 2   
    25   21   41 1   
    26   23   24 1   
    27   23   30 1   
    28   23   31 1   
    29   24   25 1   
    30   24   32 1   
    31   24   33 1   
    32   25   26 1   
    33   25   34 1   
    34   25   35 1   
    35   26   27 1   
    36   26   36 1   
    37   26   37 1   
    38   27   38 1   
    39   27   39 1   
    40   27   40 1   
    41   41   42 1   
    42   41   49 1   
    43   42   43 1   
    44   42   45 1   
    45   42   50 1   
    46   43   44 2   
    47   43   53 1   
    48   45   46 1   
    49   45   51 1   
    50   45   52 1   
    51   46   47 1   
    52   46   48 1   
    53   53   54 1   
    54   53   57 1   
    55   54   55 1   
    56   54   58 1   
    57   54   59 1   
    58   55   56 2   
    59   55   60 1   
    60   60   61 1   
    61   60   68 1   
    62   61   62 1   
    63   61   64 1   
    64   61   69 1   
    65   62   63 2   
    66   62   74 1   
    67   64   65 1   
    68   64   70 1   
    69   64   71 1   
    70   65   66 1   
    71   65   67 2   
    72   66   72 1   
    73   66   73 1   
    74   74   75 1   
    75   74   78 1   
    76   75   76 1   
    77   75   79 1   
    78   75   80 1   
    79   76   77 2   
    80   76   81 1   
    81   81   82 1   
    82   81   93 1   
    83   82   83 1   
    84   82   85 1   
    85   82   94 1   
    86   83   84 2   
    87   83  102 1   
    88   85   86 1   
    89   85   95 1   
    90   85   96 1   
    91   86   87 ar  
    92   86   88 ar  
    93   87   89 ar  
    94   87   97 1   
    95   88   90 ar  
    96   88   98 1   
    97   89   91 ar  
    98   89   99 1   
    99   90   91 ar  
   100   90  100 1   
   101   91   92 1   
   102   92  101 1   
   103  102  103 1   
   104  102  110 1   
   105  103  104 1   
   106  103  106 1   
   107  103  111 1   
   108  104  105 2   
   109  104  121 1   
   110  106  107 1   
   111  106  108 1   
   112  106  112 1   
   113  107  109 1   
   114  107  113 1   
   115  107  114 1   
   116  108  115 1   
   117  108  116 1   
   118  108  117 1   
   119  109  118 1   
   120  109  119 1   
   121  109  120 1   
   122  121  122 1   
   123  121  127 1   
   124  122  123 1   
   125  122  125 1   
   126  122  128 1   
   127  123  124 2   
   128  123  132 1   
   129  125  126 1   
   130  125  129 1   
   131  125  130 1   
   132  126  131 1   
   133  132  133 1   
   134  132  137 1   
   135  133  134 1   
   136  133  136 1   
   137  133  138 1   
   138  134  135 2   
   139  134  142 1   
   140  136  139 1   
   141  136  140 1   
   142  136  141 1   
   143  142  143 1   
   144  142  147 1   
   145  143  144 1   
   146  143  146 1   
   147  143  148 1   
   148  144  145 2   
   149  144  152 1   
   150  146  149 1   
   151  146  150 1   
   152  146  151 1   
   153  152  153 1   
   154  152  161 1   
   155  153  154 1   
   156  153  156 1   
   157  153  162 1   
   158  154  155 2   
   159  154  167 1   
   160  156  157 1   
   161  156  163 1   
   162  156  164 1   
   163  157  158 1   
   164  157  165 1   
   165  157  166 1   
   166  158  159 1   
   167  158  160 1   
   168  167  168 1   
   169  167  172 1   
   170  168  169 1   
   171  168  170 1   
   172  168  171 1   
   173  174  175 1   
   174  174  176 1   
   175  177  178 1   
   176  177  179 1   
   177  180  181 1   
   178  180  182 1   
   179  183  184 1   
   180  183  185 1   
   181  186  187 1   
   182  186  188 1   
@<TRIPOS>SUBSTRUCTURE
     1 MOL         1 TEMP              0 ****  ****    0 ROOT
