@<TRIPOS>MOLECULE
MOL
  178   175     1     0     0
SMALL
resp


@<TRIPOS>ATOM
      1 C1         -8.6970   -6.3330   -3.4020 c3        1 MOL     -0.344896
      2 C2         -7.4800   -5.6700   -2.8010 c         1 MOL      0.603315
      3 O1         -6.5370   -6.3380   -2.3540 o         1 MOL     -0.573034
      4 H1         -9.3090   -6.7590   -2.6070 hc        1 MOL      0.091010
      5 H2         -9.2800   -5.5940   -3.9520 hc        1 MOL      0.091010
      6 H3         -8.3820   -7.1260   -4.0820 hc        1 MOL      0.091010
      7 N1         -7.3760   -4.3240   -2.7970 n         1 MOL     -0.449458
      8 C3         -8.2160   -3.2650   -3.3100 c3        1 MOL      0.112832
      9 C4         -9.3230   -2.6950   -2.3510 c         1 MOL      0.421535
     10 O2        -10.0830   -1.8010   -2.7040 o         1 MOL     -0.573617
     11 C5         -7.3700   -2.0140   -3.7380 c3        1 MOL     -0.361113
     12 C6         -6.5470   -1.4120   -2.5740 c         1 MOL      0.783088
     13 O3         -6.7120   -1.6720   -1.3900 o         1 MOL     -0.779500
     14 O4         -5.5920   -0.6170   -2.8020 o         1 MOL     -0.779500
     15 H4         -6.5080   -3.9740   -2.4040 hn        1 MOL      0.308631
     16 H5         -8.8050   -3.6280   -4.1520 h1        1 MOL      0.075537
     17 H6         -8.0160   -1.2360   -4.1320 hc        1 MOL      0.107587
     18 H7         -6.6780   -2.3270   -4.5270 hc        1 MOL      0.107587
     19 N2         -9.4850   -3.2250   -1.2010 n         1 MOL     -0.351953
     20 C7        -10.5110   -2.9330   -0.2250 c3        1 MOL      0.127150
     21 C8        -10.5280   -1.5220    0.4420 c         1 MOL      0.371332
     22 O5        -11.3950   -1.1790    1.2560 o         1 MOL     -0.538527
     23 C9        -10.2490   -3.9740    0.9270 c3        1 MOL     -0.508554
     24 H8         -8.8100   -3.9450   -0.9920 hn        1 MOL      0.288183
     25 H9        -11.5260   -3.1000   -0.6070 h1        1 MOL      0.073238
     26 H10        -9.4000   -3.6110    1.5060 hc        1 MOL      0.150789
     27 H11       -11.1290   -3.9110    1.5620 hc        1 MOL      0.150789
     28 H12        -9.8890   -4.9660    0.6550 hc        1 MOL      0.150789
     29 N3         -9.5310   -0.6910    0.1980 n         1 MOL     -0.202298
     30 C10        -9.3350    0.6440    0.8680 c3        1 MOL      0.010428
     31 C11        -8.4520    1.5800    0.0360 c         1 MOL      0.283355
     32 O6         -7.7430    1.1230   -0.8350 o         1 MOL     -0.382497
     33 C12        -8.6910    0.3880    2.2140 c3        1 MOL     -0.064352
     34 C13        -7.4190   -0.4770    2.1410 c         1 MOL      0.655727
     35 O7         -6.3820    0.0830    1.7240 o         1 MOL     -0.671164
     36 O8         -7.4000   -1.6520    2.4440 o         1 MOL     -0.671164
     37 H13        -8.8940   -0.9620   -0.5350 hn        1 MOL      0.293294
     38 H14       -10.3330    1.0690    1.0070 h1        1 MOL      0.073325
     39 H15        -9.4960   -0.1150    2.7570 hc        1 MOL      0.007437
     40 H16        -8.5010    1.2990    2.7730 hc        1 MOL      0.007437
     41 N4         -8.4510    2.9280    0.2770 n         1 MOL     -0.292174
     42 C14        -7.6700    3.8860   -0.5590 c3        1 MOL     -0.219426
     43 C15        -6.1510    3.6730   -0.4120 c         1 MOL      0.694327
     44 O9         -5.6840    2.5380   -0.1200 o         1 MOL     -0.610191
     45 H17        -9.1100    3.3090    0.9380 hn        1 MOL      0.266964
     46 H18        -7.9400    4.9260   -0.3750 h1        1 MOL      0.119825
     47 H19        -7.9030    3.6680   -1.5950 h1        1 MOL      0.119825
     48 N5         -5.3560    4.6900   -0.5740 n         1 MOL     -0.602821
     49 C16        -3.8520    4.7260   -0.4330 c3        1 MOL      0.314980
     50 C17        -3.4450    4.0180    0.9410 c         1 MOL      0.490910
     51 O10        -4.1950    4.1390    1.9400 o         1 MOL     -0.497974
     52 C18        -3.3610    6.2110   -0.4370 c3        1 MOL     -0.327674
     53 C19        -3.4140    6.8490   -1.8150 c         1 MOL      0.674197
     54 N6         -2.3840    7.4440   -2.2590 n         1 MOL     -0.765912
     55 O11        -4.3740    6.6940   -2.5420 o         1 MOL     -0.590513
     56 H20        -5.7320    5.6150   -0.6950 hn        1 MOL      0.303674
     57 H21        -3.3560    4.1600   -1.2260 h1        1 MOL     -0.011432
     58 H22        -2.3610    6.2130    0.0090 hc        1 MOL      0.092940
     59 H23        -3.9860    6.7380    0.2790 hc        1 MOL      0.092940
     60 H24        -1.5740    7.4700   -1.6490 hn        1 MOL      0.383404
     61 H25        -2.4820    7.7960   -3.1940 hn        1 MOL      0.383404
     62 N7         -2.2210    3.4430    0.9500 n         1 MOL     -0.478412
     63 C20        -1.7610    2.6430    2.1270 c3        1 MOL      0.017875
     64 C21        -2.2960    1.1980    2.0920 c         1 MOL      0.687406
     65 O12        -3.1440    0.8590    1.3340 o         1 MOL     -0.698766
     66 H26        -1.6250    3.4920    0.1310 hn        1 MOL      0.311180
     67 H27        -2.1180    3.1210    3.0400 h1        1 MOL      0.085696
     68 H28        -0.6920    2.5720    2.2790 h1        1 MOL      0.085696
     69 N8         -1.8170    0.2580    2.9980 n         1 MOL     -0.367453
     70 C22        -0.7630    0.5110    4.0530 c3        1 MOL     -0.395195
     71 C23         0.6470    0.6680    3.5850 c         1 MOL      0.495435
     72 O13         1.5100    1.1600    4.3380 o         1 MOL     -0.544409
     73 C24        -0.7040   -0.6980    4.9760 c3        1 MOL      0.564696
     74 C25        -1.9370   -0.8490    5.8930 c3        1 MOL     -0.601841
     75 O14        -0.5720   -1.9250    4.3940 oh        1 MOL     -0.622782
     76 H29        -2.4270   -0.5330    3.1550 hn        1 MOL      0.248839
     77 H30        -1.1800    1.3650    4.5840 h1        1 MOL      0.168492
     78 H31         0.1050   -0.5650    5.6970 h1        1 MOL     -0.007130
     79 H32         0.0920   -2.4690    4.8370 ho        1 MOL      0.425851
     80 H33        -1.6590   -1.6460    6.5760 hc        1 MOL      0.153296
     81 H34        -2.2510    0.0730    6.3760 hc        1 MOL      0.153296
     82 H35        -2.7860   -1.2770    5.3480 hc        1 MOL      0.153296
     83 N9          0.9440    0.3860    2.2810 n         1 MOL     -0.142707
     84 C26         2.2660    0.4790    1.6390 c3        1 MOL      0.034991
     85 C27         2.0870    1.2930    0.3310 c         1 MOL      0.462872
     86 O15         1.1190    1.0020   -0.4020 o         1 MOL     -0.586071
     87 C28         2.7430   -0.9960    1.3130 c3        1 MOL      0.042463
     88 C29         2.9700   -1.7970    2.6110 c3        1 MOL     -0.194417
     89 C30         4.0020   -0.9630    0.3610 c3        1 MOL     -0.261723
     90 C31         2.6670   -3.2170    2.3750 c3        1 MOL      0.088513
     91 H36         0.2420   -0.0990    1.7490 hn        1 MOL      0.166674
     92 H37         3.0330    0.9420    2.2520 h1        1 MOL      0.026526
     93 H38         1.9150   -1.3870    0.7220 hc        1 MOL      0.025429
     94 H39         2.2670   -1.4710    3.3750 hc        1 MOL      0.062022
     95 H40         4.0200   -1.6920    2.8950 hc        1 MOL      0.062022
     96 H41         4.3520   -1.9600    0.1160 hc        1 MOL      0.089288
     97 H42         3.6500   -0.5330   -0.5770 hc        1 MOL      0.089288
     98 H43         4.7820   -0.4020    0.8830 hc        1 MOL      0.089288
     99 H44         1.5880   -3.1700    2.3380 hc        1 MOL     -0.023496
    100 H45         3.0680   -3.6850    1.4650 hc        1 MOL     -0.023496
    101 H46         2.9570   -3.8070    3.2380 hc        1 MOL     -0.023496
    102 N10         2.9850    2.2330   -0.0140 n         1 MOL     -0.497327
    103 C32         4.2790    2.5180    0.7000 c3        1 MOL      0.189591
    104 C33         5.4550    2.1140   -0.1110 c         1 MOL      0.401187
    105 O16         5.3890    1.9040   -1.3520 o         1 MOL     -0.510372
    106 C34         4.2650    3.9960    0.9820 c3        1 MOL     -0.098122
    107 C35         3.7680    4.9030   -0.1050 c         1 MOL      0.697226
    108 O17         2.7400    5.5760    0.1370 o         1 MOL     -0.725621
    109 O18         4.3480    4.9180   -1.2040 o         1 MOL     -0.725621
    110 H47         2.8460    2.6870   -0.9070 hn        1 MOL      0.361403
    111 H48         4.4640    2.0970    1.6920 h1        1 MOL      0.074734
    112 H49         5.2630    4.2900    1.2820 hc        1 MOL     -0.025516
    113 H50         3.6140    4.1950    1.8490 hc        1 MOL     -0.025516
    114 N11         6.6110    1.8940    0.5040 n         1 MOL     -0.394702
    115 C36         7.8410    1.5080   -0.2060 c3        1 MOL      0.366343
    116 C37         8.7410    0.6280    0.7430 c         1 MOL      0.100858
    117 O19         8.7310    0.9210    1.9950 o         1 MOL     -0.476629
    118 C38         8.6270    2.8060   -0.5950 c3        1 MOL     -0.214976
    119 C39         9.7730    2.4690   -1.5350 ca        1 MOL      0.002338
    120 C40        11.0650    2.0980   -1.0420 ca        1 MOL     -0.068798
    121 C41         9.6380    2.5870   -2.9630 ca        1 MOL     -0.068798
    122 C42        12.1290    1.8030   -1.8820 ca        1 MOL     -0.253834
    123 C43        10.7690    2.3040   -3.7450 ca        1 MOL     -0.253834
    124 C44        11.9560    1.8490   -3.2300 ca        1 MOL      0.050125
    125 H51         6.7120    2.0590    1.4980 hn        1 MOL      0.245132
    126 H52         7.5280    0.9330   -1.0710 h1        1 MOL      0.013184
    127 H53         9.0560    3.3060    0.2750 hc        1 MOL      0.099009
    128 H54         7.9100    3.5200   -0.9960 hc        1 MOL      0.099009
    129 H55        11.3420    2.2340   -0.0120 ha        1 MOL      0.133008
    130 H56         8.7300    2.9450   -3.4300 ha        1 MOL      0.133008
    131 H57        13.0030    1.3280   -1.4630 ha        1 MOL      0.131281
    132 H58        10.7560    2.3100   -4.8270 ha        1 MOL      0.131281
    133 H59        12.7780    1.6550   -3.9110 ha        1 MOL      0.058713
    134 N12         9.5610   -0.3270    0.2660 n         1 MOL     -0.021352
    135 C45         9.5800   -0.7690   -1.1390 c3        1 MOL      0.216857
    136 C46         8.3260   -1.6440   -1.4120 c         1 MOL      0.376775
    137 O20         7.7400   -1.4890   -2.4720 o         1 MOL     -0.552002
    138 C47        10.9060   -1.4750   -1.3000 c3        1 MOL     -0.037559
    139 C48        11.7790   -1.3290    0.0510 c3        1 MOL     -0.068138
    140 C49        10.7720   -0.6370    1.0840 c3        1 MOL     -0.156243
    141 H60         9.5630    0.0920   -1.8060 h1        1 MOL      0.002620
    142 H61        10.7040   -2.5420   -1.4260 hc        1 MOL      0.018739
    143 H62        11.4650   -1.0450   -2.1240 hc        1 MOL      0.018739
    144 H63        12.0250   -2.3270    0.3940 hc        1 MOL      0.031128
    145 H64        12.6040   -0.6590   -0.1940 hc        1 MOL      0.031128
    146 H65        10.5920   -1.3470    1.8960 h1        1 MOL      0.094637
    147 H66        11.2540    0.2580    1.4730 h1        1 MOL      0.094637
    148 N13         7.9780   -2.5630   -0.5770 n         1 MOL     -0.303604
    149 C50         6.9970   -3.5970   -0.8470 c3        1 MOL      0.079925
    150 C51         7.6250   -4.5670   -1.7960 c         1 MOL      0.397536
    151 O21         8.4240   -5.3920   -1.3090 o         1 MOL     -0.533178
    152 C52         6.3560   -4.1360    0.4850 c3        1 MOL      0.099666
    153 C53         7.3470   -4.7400    1.5350 c3        1 MOL     -0.151969
    154 C54         6.6260   -5.3820    2.7720 c         1 MOL      0.716975
    155 O22         6.4120   -4.6340    3.7260 o         1 MOL     -0.732294
    156 O23         6.2260   -6.5490    2.7450 o         1 MOL     -0.732294
    157 H67         8.4030   -2.6440    0.3300 hn        1 MOL      0.257866
    158 H68         6.1100   -3.1700   -1.3100 h1        1 MOL      0.042327
    159 H69         5.5530   -4.8530    0.3320 hc        1 MOL      0.003482
    160 H70         5.9780   -3.3370    1.1270 hc        1 MOL      0.003482
    161 H71         8.0320   -3.9970    1.9170 hc        1 MOL     -0.007837
    162 H72         7.8870   -5.5330    1.0140 hc        1 MOL     -0.007837
    163 N14         7.3510   -4.4770   -3.1120 n         1 MOL     -0.295611
    164 C55         6.3820   -3.6310   -3.8410 c3        1 MOL     -0.118756
    165 H73         6.8720   -3.1820   -4.7060 h1        1 MOL      0.078478
    166 H74         5.5440   -4.2430   -4.1750 h1        1 MOL      0.078478
    167 H75         6.0170   -2.8430   -3.1810 h1        1 MOL      0.078478
    168 H76         7.9670   -5.0450   -3.6630 hn        1 MOL      0.240587
    169 Ca1        -4.9470    0.0120   -0.3370 Ca        1 MOL      1.751557
    170 O24        -3.9530   -2.2520    0.7450 oh        1 MOL     -0.798242
    171 H77        -3.0400   -1.9640    0.7300 ho        1 MOL      0.404741
    172 H78        -4.0720   -2.6440    1.6080 ho        1 MOL      0.404741
    173 O25        -3.9120    1.9480   -2.1450 oh        1 MOL     -0.798242
    174 H79        -4.4400    2.3720   -2.8200 ho        1 MOL      0.404741
    175 H80        -3.0690    2.3820   -2.2050 ho        1 MOL      0.404741
    176 O26        -2.8130   -0.5600   -1.7270 oh        1 MOL     -0.798242
    177 H81        -1.9670   -0.9880   -1.8610 ho        1 MOL      0.404741
    178 H82        -3.0960   -0.3150   -2.6050 ho        1 MOL      0.404741
@<TRIPOS>BOND
     1    1    2 1   
     2    1    4 1   
     3    1    5 1   
     4    1    6 1   
     5    2    3 2   
     6    2    7 1   
     7    7    8 1   
     8    7   15 1   
     9    8    9 1   
    10    8   11 1   
    11    8   16 1   
    12    9   10 2   
    13    9   19 1   
    14   11   12 1   
    15   11   17 1   
    16   11   18 1   
    17   12   13 1   
    18   12   14 1   
    19   19   20 1   
    20   19   24 1   
    21   20   21 1   
    22   20   23 1   
    23   20   25 1   
    24   21   22 2   
    25   21   29 1   
    26   23   26 1   
    27   23   27 1   
    28   23   28 1   
    29   29   30 1   
    30   29   37 1   
    31   30   31 1   
    32   30   33 1   
    33   30   38 1   
    34   31   32 2   
    35   31   41 1   
    36   33   34 1   
    37   33   39 1   
    38   33   40 1   
    39   34   35 1   
    40   34   36 1   
    41   41   42 1   
    42   41   45 1   
    43   42   43 1   
    44   42   46 1   
    45   42   47 1   
    46   43   44 2   
    47   43   48 1   
    48   48   49 1   
    49   48   56 1   
    50   49   50 1   
    51   49   52 1   
    52   49   57 1   
    53   50   51 2   
    54   50   62 1   
    55   52   53 1   
    56   52   58 1   
    57   52   59 1   
    58   53   54 1   
    59   53   55 2   
    60   54   60 1   
    61   54   61 1   
    62   62   63 1   
    63   62   66 1   
    64   63   64 1   
    65   63   67 1   
    66   63   68 1   
    67   64   65 2   
    68   64   69 1   
    69   69   70 1   
    70   69   76 1   
    71   70   71 1   
    72   70   73 1   
    73   70   77 1   
    74   71   72 2   
    75   71   83 1   
    76   73   74 1   
    77   73   75 1   
    78   73   78 1   
    79   74   80 1   
    80   74   81 1   
    81   74   82 1   
    82   75   79 1   
    83   83   84 1   
    84   83   91 1   
    85   84   85 1   
    86   84   87 1   
    87   84   92 1   
    88   85   86 2   
    89   85  102 1   
    90   87   88 1   
    91   87   89 1   
    92   87   93 1   
    93   88   90 1   
    94   88   94 1   
    95   88   95 1   
    96   89   96 1   
    97   89   97 1   
    98   89   98 1   
    99   90   99 1   
   100   90  100 1   
   101   90  101 1   
   102  102  103 1   
   103  102  110 1   
   104  103  104 1   
   105  103  106 1   
   106  103  111 1   
   107  104  105 2   
   108  104  114 1   
   109  106  107 1   
   110  106  112 1   
   111  106  113 1   
   112  107  108 1   
   113  107  109 1   
   114  114  115 1   
   115  114  125 1   
   116  115  116 1   
   117  115  118 1   
   118  115  126 1   
   119  116  117 2   
   120  116  134 1   
   121  118  119 1   
   122  118  127 1   
   123  118  128 1   
   124  119  120 ar  
   125  119  121 ar  
   126  120  122 ar  
   127  120  129 1   
   128  121  123 ar  
   129  121  130 1   
   130  122  124 ar  
   131  122  131 1   
   132  123  124 ar  
   133  123  132 1   
   134  124  133 1   
   135  134  135 1   
   136  134  140 1   
   137  135  136 1   
   138  135  138 1   
   139  135  141 1   
   140  136  137 2   
   141  136  148 1   
   142  138  139 1   
   143  138  142 1   
   144  138  143 1   
   145  139  140 1   
   146  139  144 1   
   147  139  145 1   
   148  140  146 1   
   149  140  147 1   
   150  148  149 1   
   151  148  157 1   
   152  149  150 1   
   153  149  152 1   
   154  149  158 1   
   155  150  151 2   
   156  150  163 1   
   157  152  153 1   
   158  152  159 1   
   159  152  160 1   
   160  153  154 1   
   161  153  161 1   
   162  153  162 1   
   163  154  155 1   
   164  154  156 1   
   165  163  164 1   
   166  163  168 1   
   167  164  165 1   
   168  164  166 1   
   169  164  167 1   
   170  170  171 1   
   171  170  172 1   
   172  173  174 1   
   173  173  175 1   
   174  176  177 1   
   175  176  178 1   
@<TRIPOS>SUBSTRUCTURE
     1 MOL         1 TEMP              0 ****  ****    0 ROOT
