@<TRIPOS>MOLECULE
MOL
  189   185     1     0     0
SMALL
resp


@<TRIPOS>ATOM
      1 C1         10.2630    1.1610    1.4970 c3        1 MOL     -0.243358
      2 C2          8.9450    0.6750    0.8000 c         1 MOL      0.629664
      3 O1          7.8910    0.7000    1.4010 o         1 MOL     -0.611403
      4 H1         10.7960    0.3010    1.9040 hc        1 MOL      0.060511
      5 H2         10.8950    1.6690    0.7680 hc        1 MOL      0.060511
      6 H3         10.0140    1.8490    2.3050 hc        1 MOL      0.060511
      7 N1          9.0190    0.3040   -0.4670 n         1 MOL     -0.464336
      8 C3          7.8690    0.0950   -1.3950 c3        1 MOL      0.008472
      9 C4          7.2700   -1.3390   -1.2510 c         1 MOL      0.558854
     10 O2          7.2440   -2.1180   -2.1670 o         1 MOL     -0.449990
     11 C5          8.2400    0.5710   -2.8200 c3        1 MOL     -0.202620
     12 C6          9.4400   -0.1520   -3.4970 c         1 MOL      0.683457
     13 O3         10.2000   -0.9660   -2.9220 o         1 MOL     -0.634712
     14 O4          9.6300    0.1630   -4.7030 o         1 MOL     -0.634712
     15 H4          9.9590    0.1900   -0.8220 hn        1 MOL      0.259897
     16 H5          7.0960    0.8420   -1.1810 h1        1 MOL      0.105782
     17 H6          8.5440    1.6170   -2.7650 hc        1 MOL      0.067871
     18 H7          7.3870    0.5680   -3.4850 hc        1 MOL      0.067871
     19 N2          6.9510   -1.6810   -0.0210 n         1 MOL     -0.531337
     20 C7          6.5980   -3.1130    0.2910 c3        1 MOL      0.417890
     21 C8          5.1510   -3.5480   -0.0300 c         1 MOL      0.335995
     22 O5          4.8460   -4.5340   -0.6970 o         1 MOL     -0.501482
     23 C9          6.8740   -3.4960    1.7450 c3        1 MOL     -0.110451
     24 C10         8.3320   -3.1800    2.1350 c3        1 MOL     -0.032042
     25 C11         8.7680   -3.9940    3.3630 c3        1 MOL      0.056663
     26 C12        10.1240   -3.5170    3.5990 c3        1 MOL      0.069570
     27 N3         10.6840   -4.1200    4.8020 n4        1 MOL     -0.339583
     28 H8          7.1200   -1.1400    0.8090 hn        1 MOL      0.191153
     29 H9          7.2070   -3.8120   -0.2840 h1        1 MOL     -0.009991
     30 H10         6.5670   -4.5170    1.9680 hc        1 MOL      0.030105
     31 H11         6.2640   -2.8550    2.3800 hc        1 MOL      0.030105
     32 H12         8.3700   -2.1090    2.3140 hc        1 MOL      0.035141
     33 H13         9.0570   -3.3640    1.3380 hc        1 MOL      0.035141
     34 H14         8.8550   -5.0650    3.1870 hc        1 MOL      0.008627
     35 H15         8.1080   -3.7510    4.1950 hc        1 MOL      0.008627
     36 H16        10.0300   -2.4290    3.6270 hx        1 MOL      0.057991
     37 H17        10.6620   -3.8450    2.7090 hx        1 MOL      0.057991
     38 H18        11.4760   -3.5200    4.9780 hn        1 MOL      0.278434
     39 H19         9.9880   -4.0620    5.5350 hn        1 MOL      0.278434
     40 H20        10.9050   -5.1010    4.6860 hn        1 MOL      0.278434
     41 N4          4.0720   -2.7320    0.2180 n         1 MOL     -0.435026
     42 C13         3.9990   -1.3370    0.7500 c3        1 MOL      0.101337
     43 C14         3.9970   -0.2520   -0.2700 c         1 MOL      0.609904
     44 O6          3.9110   -0.5040   -1.4250 o         1 MOL     -0.506280
     45 C15         2.7710   -1.3130    1.7020 c3        1 MOL     -0.383586
     46 C16         1.4430   -1.6940    1.1820 c         1 MOL      0.835077
     47 O7          0.8740   -0.9350    0.4090 o         1 MOL     -0.730148
     48 O8          1.0280   -2.8720    1.3840 o         1 MOL     -0.730148
     49 H21         3.2420   -3.0310   -0.2920 hn        1 MOL      0.381800
     50 H22         4.8330   -1.1340    1.4230 h1        1 MOL      0.050240
     51 H23         2.5880   -0.3340    2.1240 hc        1 MOL      0.059253
     52 H24         2.9000   -2.0320    2.5250 hc        1 MOL      0.059253
     53 N5          4.0990    0.9600    0.2530 n         1 MOL     -0.501895
     54 C17         4.0520    2.2810   -0.4810 c3        1 MOL     -0.007612
     55 C18         2.7000    2.7700   -1.0160 c         1 MOL      0.315129
     56 O9          1.6550    2.3240   -0.5550 o         1 MOL     -0.505684
     57 H25         4.3000    0.9780    1.2380 hn        1 MOL      0.325658
     58 H26         4.8150    2.2020   -1.2630 h1        1 MOL      0.074097
     59 H27         4.3900    2.9910    0.2740 h1        1 MOL      0.074097
     60 N6          2.6860    3.6150   -1.9900 n         1 MOL     -0.290124
     61 C19         1.5380    4.3770   -2.4220 c3        1 MOL      0.127541
     62 C20         1.7120    5.8700   -2.3730 c         1 MOL      0.565817
     63 O10         2.7960    6.3390   -2.2140 o         1 MOL     -0.550759
     64 C21         1.0800    3.8950   -3.8230 c3        1 MOL     -0.234612
     65 C22         0.5090    2.5050   -3.8240 c         1 MOL      0.710619
     66 O11         0.9900    1.5920   -4.5600 o         1 MOL     -0.688643
     67 O12        -0.3750    2.2070   -2.9800 o         1 MOL     -0.688643
     68 H28         3.5660    3.9480   -2.3560 hn        1 MOL      0.277783
     69 H29         0.7160    4.0860   -1.7680 h1        1 MOL      0.036720
     70 H30         1.9130    3.7870   -4.5200 hc        1 MOL      0.065495
     71 H31         0.3600    4.5550   -4.2880 hc        1 MOL      0.065495
     72 N7          0.7100    6.7560   -2.5090 n         1 MOL     -0.558402
     73 C23        -0.7460    6.4780   -2.4290 c3        1 MOL      0.048650
     74 C24        -1.2740    6.1610   -0.9890 c         1 MOL      0.582352
     75 O13        -0.6480    6.4900    0.0210 o         1 MOL     -0.517734
     76 H32         0.9640    7.7270   -2.4960 hn        1 MOL      0.350552
     77 H33        -0.9100    5.6080   -3.0630 h1        1 MOL      0.053558
     78 H34        -1.3360    7.2930   -2.8510 h1        1 MOL      0.053558
     79 N8         -2.3350    5.3420   -0.8400 n         1 MOL     -0.727057
     80 C25        -2.9230    4.8650    0.4450 c3        1 MOL      0.174912
     81 C26        -2.0310    3.7300    0.9580 c         1 MOL      0.891043
     82 O14        -1.4780    2.9720    0.1920 o         1 MOL     -0.650083
     83 C27        -4.3380    4.5050    0.1940 c3        1 MOL      0.458871
     84 C28        -5.0180    4.3930    1.4680 c3        1 MOL     -0.484304
     85 O15        -4.5000    3.2580   -0.3760 oh        1 MOL     -0.677413
     86 H35        -2.7980    5.0990   -1.7050 hn        1 MOL      0.333132
     87 H36        -2.9330    5.6600    1.1840 h1        1 MOL      0.031010
     88 H37        -4.7880    5.2740   -0.4130 h1        1 MOL     -0.002834
     89 H38        -5.4490    3.3020   -0.5440 ho        1 MOL      0.393715
     90 H39        -5.0830    5.4040    1.8730 hc        1 MOL      0.114192
     91 H40        -6.0490    4.0790    1.3220 hc        1 MOL      0.114192
     92 H41        -4.5320    3.6910    2.1440 hc        1 MOL      0.114192
     93 N9         -1.9670    3.6100    2.2910 n         1 MOL     -0.684254
     94 C29        -1.2180    2.6270    3.0240 c3        1 MOL     -0.032135
     95 C30        -1.8390    1.2190    2.7860 c         1 MOL      0.806284
     96 O16        -1.8170    0.6720    1.6610 o         1 MOL     -0.667207
     97 C31         0.3720    2.7500    2.8780 c3        1 MOL      0.053971
     98 C32         0.8380    4.2360    2.8840 c3        1 MOL      0.283934
     99 C33         1.1500    1.9930    3.9050 c3        1 MOL     -0.324797
    100 C34         2.1350    4.4530    2.0930 c3        1 MOL     -0.240331
    101 H42        -2.5700    4.1920    2.8580 hn        1 MOL      0.307765
    102 H43        -1.3820    2.8610    4.0720 h1        1 MOL      0.081988
    103 H44         0.7270    2.2070    1.9960 hc        1 MOL     -0.002143
    104 H45         0.8990    4.6510    3.8870 hc        1 MOL     -0.065890
    105 H46         0.1280    4.8800    2.3760 hc        1 MOL     -0.065890
    106 H47         0.6280    1.0470    4.0290 hc        1 MOL      0.069461
    107 H48         2.2220    1.9310    3.6920 hc        1 MOL      0.069461
    108 H49         0.9800    2.4950    4.8600 hc        1 MOL      0.069461
    109 H50         1.9760    4.5790    1.0280 hc        1 MOL      0.072613
    110 H51         2.7000    5.3380    2.3840 hc        1 MOL      0.072613
    111 H52         2.7690    3.5780    2.2150 hc        1 MOL      0.072613
    112 N10        -2.3870    0.5040    3.7490 n         1 MOL     -0.545699
    113 C35        -2.8530   -0.8960    3.6080 c3        1 MOL      0.023613
    114 C36        -4.1900   -1.0510    2.9410 c         1 MOL      0.419361
    115 O17        -4.6260   -2.1550    2.6800 o         1 MOL     -0.551468
    116 C37        -3.0150   -1.6590    4.9880 c3        1 MOL      0.479168
    117 C38        -4.0250   -1.0590    6.0290 c3        1 MOL     -0.256863
    118 O18        -1.7270   -1.7220    5.6300 oh        1 MOL     -0.645071
    119 H53        -2.6340    0.9090    4.6380 hn        1 MOL      0.255233
    120 H54        -2.1120   -1.4350    3.0040 h1        1 MOL      0.059060
    121 H55        -3.2950   -2.6820    4.7290 h1        1 MOL     -0.010337
    122 H56        -1.0900   -1.7740    4.9180 ho        1 MOL      0.394009
    123 H57        -4.0560   -1.6580    6.9350 hc        1 MOL      0.063512
    124 H58        -3.6660   -0.0320    6.0840 hc        1 MOL      0.063512
    125 H59        -5.0070   -0.9570    5.5600 hc        1 MOL      0.063512
    126 N11        -4.8790    0.0060    2.4990 n         1 MOL     -0.073703
    127 C39        -6.2320   -0.0780    1.9720 c3        1 MOL     -0.255243
    128 C40        -6.1600   -0.5910    0.5100 c         1 MOL      0.593880
    129 O19        -5.6900    0.1160   -0.3840 o         1 MOL     -0.542348
    130 C41        -6.8750    1.2750    2.0690 c3        1 MOL      0.364318
    131 C42        -8.3410    1.3610    1.5170 c3        1 MOL     -0.356555
    132 O20        -6.8440    1.7010    3.3780 oh        1 MOL     -0.603845
    133 H60        -4.6110    0.9630    2.6670 hn        1 MOL      0.127080
    134 H61        -6.8570   -0.7180    2.5980 h1        1 MOL      0.087697
    135 H62        -6.2700    1.8650    1.3820 h1        1 MOL      0.027102
    136 H63        -7.2760    1.0230    3.9070 ho        1 MOL      0.393760
    137 H64        -8.6490    2.3970    1.3510 hc        1 MOL      0.090563
    138 H65        -8.4600    0.7710    0.6060 hc        1 MOL      0.090563
    139 H66        -9.0680    0.7980    2.1110 hc        1 MOL      0.090563
    140 N12        -6.6540   -1.8340    0.2880 n         1 MOL     -0.337524
    141 C43        -6.7350   -2.6950   -0.9330 c3        1 MOL      0.033924
    142 C44        -5.4220   -2.7260   -1.6850 c         1 MOL      0.513056
    143 O21        -5.3420   -2.2160   -2.7520 o         1 MOL     -0.515818
    144 C45        -7.9380   -2.0820   -1.6750 c3        1 MOL     -0.255385
    145 C46        -9.2380   -2.1950   -0.8350 c3        1 MOL     -0.017242
    146 C47       -10.5610   -1.8030   -1.5390 c3        1 MOL     -0.080463
    147 C48       -11.8100   -2.5010   -0.8110 c3        1 MOL      0.159012
    148 N13       -13.0550   -2.3150   -1.5280 n4        1 MOL     -0.063691
    149 H67        -7.1780   -2.1320    1.0970 hn        1 MOL      0.199738
    150 H68        -6.9210   -3.7300   -0.6730 h1        1 MOL      0.076463
    151 H69        -8.0840   -2.6630   -2.5930 hc        1 MOL      0.128221
    152 H70        -7.6530   -1.0970   -2.0290 hc        1 MOL      0.128221
    153 H71        -9.2210   -1.6410    0.1070 hc        1 MOL      0.032868
    154 H72        -9.3320   -3.2760   -0.7450 hc        1 MOL      0.032868
    155 H73       -10.4470   -2.1720   -2.5560 hc        1 MOL      0.038597
    156 H74       -10.6490   -0.7200   -1.5680 hc        1 MOL      0.038597
    157 H75       -11.9710   -1.9270    0.1000 hx        1 MOL      0.005355
    158 H76       -11.7310   -3.5580   -0.5530 hx        1 MOL      0.005355
    159 H77       -13.1730   -1.3260   -1.6790 hn        1 MOL      0.157045
    160 H78       -13.1560   -2.9260   -2.3270 hn        1 MOL      0.157045
    161 H79       -13.8270   -2.4730   -0.8910 hn        1 MOL      0.157045
    162 N14        -4.3420   -3.2230   -1.0500 n         1 MOL     -0.510497
    163 C49        -3.0180   -3.2530   -1.7310 c3        1 MOL      0.382066
    164 C50        -1.8130   -2.8280   -0.8770 c         1 MOL      0.281781
    165 O22        -1.3280   -1.7430   -1.1770 o         1 MOL     -0.510168
    166 C51        -2.7640   -4.6320   -2.4350 c3        1 MOL     -0.026895
    167 C52        -3.8150   -4.9750   -3.4990 c3        1 MOL     -0.254648
    168 C53        -3.2660   -6.1480   -4.3310 c         1 MOL      0.660864
    169 O23        -2.3800   -5.9580   -5.1830 o         1 MOL     -0.600762
    170 O24        -3.7250   -7.2810   -4.1190 o         1 MOL     -0.600762
    171 H80        -4.4310   -3.8190   -0.2450 hn        1 MOL      0.281991
    172 H81        -2.9610   -2.4860   -2.5100 h1        1 MOL      0.025696
    173 H82        -2.7390   -5.4060   -1.6690 hc        1 MOL      0.047673
    174 H83        -1.7950   -4.4840   -2.9130 hc        1 MOL      0.047673
    175 H84        -3.9190   -4.0920   -4.1390 hc        1 MOL      0.053592
    176 H85        -4.7610   -5.2770   -3.0470 hc        1 MOL      0.053592
    177 N15        -1.4160   -3.4530    0.2140 n         1 MOL     -0.279624
    178 C54        -1.6910   -4.8380    0.7020 c3        1 MOL     -0.157240
    179 H86        -0.7490   -5.3630    0.8550 h1        1 MOL      0.069155
    180 H87        -2.2370   -4.7910    1.6450 h1        1 MOL      0.069155
    181 H88        -2.2880   -5.3730   -0.0370 h1        1 MOL      0.069155
    182 H89        -0.5890   -3.0280    0.6190 hn        1 MOL      0.349391
    183 Ca1        -0.5430    0.7540   -0.8200 Ca        1 MOL      1.739036
    184 O25         1.2290   -0.1040   -2.6000 oh        1 MOL     -0.996959
    185 H90         2.1330   -0.0110   -2.3030 ho        1 MOL      0.485395
    186 H91         1.1840    0.4090   -3.4010 ho        1 MOL      0.485395
    187 O26        -3.2450    0.6910   -1.3990 oh        1 MOL     -0.996959
    188 H92        -3.7510    1.4300   -1.0590 ho        1 MOL      0.485395
    189 H93        -3.8980    0.0990   -1.7620 ho        1 MOL      0.485395
@<TRIPOS>BOND
     1    1    2 1   
     2    1    4 1   
     3    1    5 1   
     4    1    6 1   
     5    2    3 2   
     6    2    7 1   
     7    7    8 1   
     8    7   15 1   
     9    8    9 1   
    10    8   11 1   
    11    8   16 1   
    12    9   10 2   
    13    9   19 1   
    14   11   12 1   
    15   11   17 1   
    16   11   18 1   
    17   12   13 1   
    18   12   14 1   
    19   19   20 1   
    20   19   28 1   
    21   20   21 1   
    22   20   23 1   
    23   20   29 1   
    24   21   22 2   
    25   21   41 1   
    26   23   24 1   
    27   23   30 1   
    28   23   31 1   
    29   24   25 1   
    30   24   32 1   
    31   24   33 1   
    32   25   26 1   
    33   25   34 1   
    34   25   35 1   
    35   26   27 1   
    36   26   36 1   
    37   26   37 1   
    38   27   38 1   
    39   27   39 1   
    40   27   40 1   
    41   41   42 1   
    42   41   49 1   
    43   42   43 1   
    44   42   45 1   
    45   42   50 1   
    46   43   44 2   
    47   43   53 1   
    48   45   46 1   
    49   45   51 1   
    50   45   52 1   
    51   46   47 1   
    52   46   48 1   
    53   53   54 1   
    54   53   57 1   
    55   54   55 1   
    56   54   58 1   
    57   54   59 1   
    58   55   56 2   
    59   55   60 1   
    60   60   61 1   
    61   60   68 1   
    62   61   62 1   
    63   61   64 1   
    64   61   69 1   
    65   62   63 2   
    66   62   72 1   
    67   64   65 1   
    68   64   70 1   
    69   64   71 1   
    70   65   66 1   
    71   65   67 1   
    72   72   73 1   
    73   72   76 1   
    74   73   74 1   
    75   73   77 1   
    76   73   78 1   
    77   74   75 2   
    78   74   79 1   
    79   79   80 1   
    80   79   86 1   
    81   80   81 1   
    82   80   83 1   
    83   80   87 1   
    84   81   82 2   
    85   81   93 1   
    86   83   84 1   
    87   83   85 1   
    88   83   88 1   
    89   84   90 1   
    90   84   91 1   
    91   84   92 1   
    92   85   89 1   
    93   93   94 1   
    94   93  101 1   
    95   94   95 1   
    96   94   97 1   
    97   94  102 1   
    98   95   96 2   
    99   95  112 1   
   100   97   98 1   
   101   97   99 1   
   102   97  103 1   
   103   98  100 1   
   104   98  104 1   
   105   98  105 1   
   106   99  106 1   
   107   99  107 1   
   108   99  108 1   
   109  100  109 1   
   110  100  110 1   
   111  100  111 1   
   112  112  113 1   
   113  112  119 1   
   114  113  114 1   
   115  113  116 1   
   116  113  120 1   
   117  114  115 2   
   118  114  126 1   
   119  116  117 1   
   120  116  118 1   
   121  116  121 1   
   122  117  123 1   
   123  117  124 1   
   124  117  125 1   
   125  118  122 1   
   126  126  127 1   
   127  126  133 1   
   128  127  128 1   
   129  127  130 1   
   130  127  134 1   
   131  128  129 2   
   132  128  140 1   
   133  130  131 1   
   134  130  132 1   
   135  130  135 1   
   136  131  137 1   
   137  131  138 1   
   138  131  139 1   
   139  132  136 1   
   140  140  141 1   
   141  140  149 1   
   142  141  142 1   
   143  141  144 1   
   144  141  150 1   
   145  142  143 2   
   146  142  162 1   
   147  144  145 1   
   148  144  151 1   
   149  144  152 1   
   150  145  146 1   
   151  145  153 1   
   152  145  154 1   
   153  146  147 1   
   154  146  155 1   
   155  146  156 1   
   156  147  148 1   
   157  147  157 1   
   158  147  158 1   
   159  148  159 1   
   160  148  160 1   
   161  148  161 1   
   162  162  163 1   
   163  162  171 1   
   164  163  164 1   
   165  163  166 1   
   166  163  172 1   
   167  164  165 2   
   168  164  177 1   
   169  166  167 1   
   170  166  173 1   
   171  166  174 1   
   172  167  168 1   
   173  167  175 1   
   174  167  176 1   
   175  168  169 1   
   176  168  170 1   
   177  177  178 1   
   178  177  182 1   
   179  178  179 1   
   180  178  180 1   
   181  178  181 1   
   182  184  185 1   
   183  184  186 1   
   184  187  188 1   
   185  187  189 1   
@<TRIPOS>SUBSTRUCTURE
     1 MOL         1 TEMP              0 ****  ****    0 ROOT
