@<TRIPOS>MOLECULE
MOL
  181   177     1     0     0
SMALL
resp


@<TRIPOS>ATOM
      1 C1         -3.6890    1.8060    3.9690 c3        1 MOL     -0.382753
      2 C2         -4.5770    0.5450    3.7980 c         1 MOL      0.603968
      3 O1         -4.1590   -0.6020    3.8150 o         1 MOL     -0.579084
      4 H1         -3.8570    2.2360    4.9560 hc        1 MOL      0.106068
      5 H2         -2.6400    1.5280    3.8670 hc        1 MOL      0.106068
      6 H3         -3.9480    2.5390    3.2050 hc        1 MOL      0.106068
      7 N1         -5.8990    0.7740    3.5580 n         1 MOL     -0.370123
      8 C3         -6.9020   -0.1530    3.2060 c3        1 MOL      0.044364
      9 C4         -6.9550   -0.6390    1.7340 c         1 MOL      0.765229
     10 O2         -7.1670    0.1700    0.7870 o         1 MOL     -0.589407
     11 C5         -8.3290    0.3570    3.6160 c3        1 MOL     -0.256837
     12 C6         -8.6450    1.8360    3.2040 c         1 MOL      0.725670
     13 O3         -9.8100    2.0300    2.7460 o         1 MOL     -0.707113
     14 O4         -7.8000    2.7450    3.2380 o         1 MOL     -0.707113
     15 H4         -6.2350    1.7190    3.7020 hn        1 MOL      0.222943
     16 H5         -6.5950   -1.0300    3.7750 h1        1 MOL     -0.000746
     17 H6         -8.4080    0.3550    4.7080 hc        1 MOL      0.035492
     18 H7         -9.0890   -0.3290    3.2430 hc        1 MOL      0.035492
     19 N2         -6.8930   -1.9240    1.5160 n         1 MOL     -0.738313
     20 C7         -6.9340   -2.5610    0.2100 c3        1 MOL      0.610857
     21 C8         -5.6100   -2.2210   -0.5350 c         1 MOL      0.264493
     22 O5         -4.5030   -2.5740   -0.0440 o         1 MOL     -0.487110
     23 C9         -7.3040   -4.0920    0.2320 c3        1 MOL     -0.420671
     24 H8         -6.7290   -2.5120    2.3210 hn        1 MOL      0.339621
     25 H9         -7.7390   -2.0750   -0.3460 h1        1 MOL     -0.059640
     26 H10        -6.3830   -4.6200    0.4720 hc        1 MOL      0.100831
     27 H11        -7.9280   -4.2060    1.1110 hc        1 MOL      0.100831
     28 H12        -7.8160   -4.2160   -0.7240 hc        1 MOL      0.100831
     29 N3         -5.7090   -1.6030   -1.7080 n         1 MOL     -0.597305
     30 C10        -4.4680   -1.0780   -2.3220 c3        1 MOL     -0.002202
     31 C11        -3.5730   -2.1170   -3.0500 c         1 MOL      0.616713
     32 O6         -2.4900   -1.7730   -3.4810 o         1 MOL     -0.467925
     33 C12        -4.8790    0.0110   -3.3500 c3        1 MOL     -0.498337
     34 C13        -3.7490    0.8950   -3.8750 c         1 MOL      0.835726
     35 O7         -3.0290    1.4770   -3.1010 o         1 MOL     -0.720342
     36 O8         -3.6080    1.1850   -5.0440 o         1 MOL     -0.720342
     37 H13        -6.6580   -1.3320   -1.9260 hn        1 MOL      0.367160
     38 H14        -3.8400   -0.6520   -1.5400 h1        1 MOL      0.128676
     39 H15        -5.6960    0.6240   -2.9790 hc        1 MOL      0.101525
     40 H16        -5.4420   -0.5320   -4.1100 hc        1 MOL      0.101525
     41 N4         -4.1080   -3.3180   -3.3120 n         1 MOL     -0.189993
     42 C14        -3.7380   -4.3430   -4.2470 c3        1 MOL     -0.318636
     43 C15        -2.2890   -4.8070   -4.1590 c         1 MOL      0.660267
     44 O9         -1.8700   -5.4190   -5.1510 o         1 MOL     -0.581206
     45 H17        -4.9560   -3.5910   -2.8350 hn        1 MOL      0.224666
     46 H18        -4.0040   -3.9490   -5.2320 h1        1 MOL      0.113072
     47 H19        -4.3160   -5.2430   -4.0250 h1        1 MOL      0.113072
     48 N5         -1.6360   -4.6340   -2.9770 n         1 MOL     -0.494600
     49 C16        -0.3850   -5.2820   -2.6080 c3        1 MOL      0.371848
     50 C17        -0.3100   -5.2660   -1.0710 c         1 MOL      0.403893
     51 O10        -0.9870   -4.4540   -0.4380 o         1 MOL     -0.418297
     52 C18         0.7760   -4.6060   -3.2960 c3        1 MOL     -0.336830
     53 C19         2.0220   -5.4840   -3.4860 c         1 MOL      0.702956
     54 N6          2.7280   -5.3130   -4.6220 n         1 MOL     -0.824238
     55 O11         2.3370   -6.4330   -2.7550 o         1 MOL     -0.592725
     56 H20        -2.0890   -4.1270   -2.2400 hn        1 MOL      0.186946
     57 H21        -0.5080   -6.3020   -2.9790 h1        1 MOL     -0.035174
     58 H22         1.1160   -3.7640   -2.7060 hc        1 MOL      0.123194
     59 H23         0.6020   -4.3530   -4.3380 hc        1 MOL      0.123194
     60 H24         2.3880   -4.7290   -5.3650 hn        1 MOL      0.372336
     61 H25         3.5390   -5.8920   -4.7400 hn        1 MOL      0.372336
     62 N7          0.4810   -6.1150   -0.5060 n         1 MOL     -0.520217
     63 C20         0.9150   -6.0500    0.8640 c3        1 MOL      0.182405
     64 C21         2.3070   -5.5320    1.0070 c         1 MOL      0.545064
     65 O12         2.8900   -5.1370   -0.0280 o         1 MOL     -0.413325
     66 H26         0.9120   -6.7730   -1.1420 hn        1 MOL      0.313076
     67 H27         0.9760   -7.0510    1.3100 h1        1 MOL      0.007545
     68 H28         0.2490   -5.4450    1.4870 h1        1 MOL      0.007545
     69 N8          2.8270   -5.4760    2.2690 n         1 MOL     -0.527780
     70 C22         4.2390   -5.1120    2.5830 c3        1 MOL     -0.400972
     71 C23         4.3440   -3.5900    2.8640 c         1 MOL      0.648313
     72 O13         5.4400   -3.1080    2.7210 o         1 MOL     -0.583116
     73 C24         4.9740   -6.0150    3.5670 c3        1 MOL      0.592120
     74 C25         4.5440   -6.0070    4.9940 c3        1 MOL     -0.463976
     75 O14         4.9270   -7.3520    3.1720 oh        1 MOL     -0.656855
     76 H29         2.3060   -5.8400    3.0630 hn        1 MOL      0.295010
     77 H30         4.7910   -5.2380    1.6470 h1        1 MOL      0.209950
     78 H31         6.0460   -5.8370    3.5500 h1        1 MOL      0.019496
     79 H32         4.1120   -7.7940    3.4470 ho        1 MOL      0.389875
     80 H33         4.4600   -4.9690    5.3330 hc        1 MOL      0.102566
     81 H34         3.5620   -6.4640    5.0490 hc        1 MOL      0.102566
     82 H35         5.2880   -6.5120    5.6140 hc        1 MOL      0.102566
     83 N9          3.3170   -2.8950    3.2860 n         1 MOL     -0.323772
     84 C26         3.2960   -1.3710    3.3690 c3        1 MOL      0.101745
     85 C27         2.3220   -0.8500    2.3490 c         1 MOL      0.451851
     86 O15         1.2730   -1.4630    2.2500 o         1 MOL     -0.490489
     87 C28         2.9320   -1.0290    4.8420 c3        1 MOL      0.072838
     88 C29         3.9160   -1.5070    5.9360 c3        1 MOL     -0.166395
     89 C30         2.8510    0.4350    5.1070 c3        1 MOL      0.011152
     90 C31         5.3980   -1.0180    5.8140 c3        1 MOL     -0.039830
     91 H36         2.4310   -3.3340    3.4970 hn        1 MOL      0.257017
     92 H37         4.3020   -0.9890    3.2290 h1        1 MOL      0.018306
     93 H38         1.9860   -1.5640    4.9890 hc        1 MOL      0.007683
     94 H39         3.9320   -2.5930    5.8800 hc        1 MOL      0.036930
     95 H40         3.5270   -1.1180    6.8760 hc        1 MOL      0.036930
     96 H41         3.7910    1.0060    5.0320 hc        1 MOL      0.002390
     97 H42         2.1940    0.9600    4.4160 hc        1 MOL      0.002390
     98 H43         2.4890    0.6260    6.1170 hc        1 MOL      0.002390
     99 H44         5.4400    0.0640    5.8340 hc        1 MOL      0.016827
    100 H45         5.9210   -1.3150    6.7260 hc        1 MOL      0.016827
    101 H46         5.9520   -1.4920    4.9950 hc        1 MOL      0.016827
    102 N10         2.6820    0.2720    1.6770 n         1 MOL     -0.538860
    103 C32         1.7850    0.9030    0.6610 c3        1 MOL      0.475336
    104 C33         2.6120    1.5730   -0.4730 c         1 MOL      0.310014
    105 O16         2.2790    2.6620   -0.9640 o         1 MOL     -0.367067
    106 C34         0.8520    1.8950    1.3830 c3        1 MOL     -0.347553
    107 C35        -0.4580    2.1320    0.6630 c         1 MOL      0.828566
    108 O17        -0.7330    1.5080   -0.3740 o         1 MOL     -0.736221
    109 O18        -1.2930    2.9430    1.1910 o         1 MOL     -0.736221
    110 H47         3.5460    0.7360    1.8980 hn        1 MOL      0.278354
    111 H48         1.2140    0.1260    0.1660 h1        1 MOL      0.032249
    112 H49         1.3740    2.8420    1.5240 hc        1 MOL      0.042183
    113 H50         0.5830    1.5170    2.3620 hc        1 MOL      0.042183
    114 N11         3.7990    1.0030   -0.7730 n         1 MOL     -0.421549
    115 C36         4.7940    1.6010   -1.6630 c3        1 MOL      0.381970
    116 C37         5.1390    3.0330   -1.2460 c         1 MOL      0.221705
    117 O19         5.5970    3.3120   -0.1230 o         1 MOL     -0.498520
    118 C38         6.0440    0.7130   -1.9060 c3        1 MOL     -0.285650
    119 C39         5.6350   -0.7540   -2.0210 ca        1 MOL      0.155285
    120 C40         5.9190   -1.6680   -1.0550 ca        1 MOL     -0.198253
    121 C41         5.1210   -1.1780   -3.2480 ca        1 MOL     -0.198253
    122 C42         5.6430   -3.0770   -1.1670 ca        1 MOL     -0.077914
    123 C43         4.8190   -2.5760   -3.3500 ca        1 MOL     -0.077914
    124 C44         5.0270   -3.4950   -2.3260 ca        1 MOL     -0.123664
    125 H51         3.9980    0.1780   -0.2160 hn        1 MOL      0.221762
    126 H52         4.3040    1.5930   -2.6420 h1        1 MOL     -0.022759
    127 H53         6.7710    0.8320   -1.1010 hc        1 MOL      0.083330
    128 H54         6.5070    0.9670   -2.8580 hc        1 MOL      0.083330
    129 H55         6.3140   -1.2630   -0.1310 ha        1 MOL      0.122341
    130 H56         5.0460   -0.4750   -4.0640 ha        1 MOL      0.122341
    131 H57         5.6980   -3.7380   -0.3130 ha        1 MOL      0.077531
    132 H58         4.4140   -3.0400   -4.2360 ha        1 MOL      0.077531
    133 H59         4.7810   -4.5400   -2.4740 ha        1 MOL      0.114109
    134 N12         4.9510    4.0020   -2.2120 n         1 MOL     -0.040481
    135 C45         5.4560    5.3620   -1.8800 c3        1 MOL      0.097541
    136 C46         4.5660    6.2730   -0.9590 c         1 MOL      0.224260
    137 O20         5.0290    7.2980   -0.3710 o         1 MOL     -0.510280
    138 C47         5.4910    5.9640   -3.2820 c3        1 MOL     -0.213240
    139 C48         4.5260    5.2520   -4.1410 c3        1 MOL     -0.072478
    140 C49         4.6360    3.8320   -3.5790 c3        1 MOL     -0.050121
    141 H60         6.4830    5.2620   -1.5200 h1        1 MOL      0.072630
    142 H61         5.2180    7.0200   -3.2080 hc        1 MOL      0.073669
    143 H62         6.5210    5.8780   -3.6400 hc        1 MOL      0.073669
    144 H63         3.5220    5.5450   -3.8120 hc        1 MOL      0.058150
    145 H64         4.6700    5.1850   -5.2210 hc        1 MOL      0.058150
    146 H65         3.6220    3.4610   -3.7400 h1        1 MOL      0.057721
    147 H66         5.3680    3.2540   -4.1320 h1        1 MOL      0.057721
    148 N13         3.2850    5.9410   -0.8020 n         1 MOL      0.007609
    149 C50         2.3370    6.7120    0.0030 c3        1 MOL     -0.176112
    150 C51         2.5330    6.7770    1.5960 c         1 MOL      0.413620
    151 O21         2.2090    7.7520    2.3030 o         1 MOL     -0.529333
    152 C52         0.9860    6.0060   -0.1470 c3        1 MOL      0.146603
    153 C53         0.3990    5.8080   -1.5720 c3        1 MOL     -0.398191
    154 C54        -1.0050    5.1310   -1.5960 c         1 MOL      0.747217
    155 O22        -1.9770    5.6540   -0.9710 o         1 MOL     -0.717169
    156 O23        -1.1200    4.0480   -2.2030 o         1 MOL     -0.717169
    157 H67         2.9360    5.0370   -1.0950 hn        1 MOL      0.152194
    158 H68         2.2490    7.7380   -0.3640 h1        1 MOL      0.122545
    159 H69         0.2730    6.6490    0.3770 hc        1 MOL      0.007271
    160 H70         1.0660    5.0160    0.3170 hc        1 MOL      0.007271
    161 H71         1.0760    5.3240   -2.2760 hc        1 MOL      0.072500
    162 H72         0.2400    6.8610   -1.8280 hc        1 MOL      0.072500
    163 N14         3.1740    5.7450    2.1680 n         1 MOL     -0.158312
    164 C55         3.3300    5.6310    3.6310 c3        1 MOL     -0.205593
    165 H73         2.8400    6.4750    4.1150 h1        1 MOL      0.089596
    166 H74         2.8730    4.7020    3.9740 h1        1 MOL      0.089596
    167 H75         4.3900    5.6300    3.8850 h1        1 MOL      0.089596
    168 H76         3.5710    5.0100    1.5970 hn        1 MOL      0.213013
    169 Ca1        -3.0430    3.0150   -0.7690 Ca        1 MOL      1.752868
    170 O24        -5.6010    2.0060   -0.5210 oh        1 MOL     -0.875194
    171 H77        -6.0670    1.2910   -0.1010 ho        1 MOL      0.427210
    172 H78        -6.2980    2.5870   -0.8470 ho        1 MOL      0.427210
    173 O25        -4.3830    4.3650    1.1220 oh        1 MOL     -0.875194
    174 H79        -4.2760    4.7970    1.9690 ho        1 MOL      0.427210
    175 H80        -5.3180    4.1680    1.0670 ho        1 MOL      0.427210
    176 O26        -3.3260    0.7700    0.7280 oh        1 MOL     -0.875194
    177 H81        -2.4910    0.3280    0.9200 ho        1 MOL      0.427210
    178 H82        -3.9940    0.1210    0.9540 ho        1 MOL      0.427210
    179 O27        -4.7120    4.2200   -2.3770 oh        1 MOL     -0.875194
    180 H83        -5.5600    3.9280   -2.6960 ho        1 MOL      0.427210
    181 H84        -4.4460    4.9220   -2.9630 ho        1 MOL      0.427210
@<TRIPOS>BOND
     1    1    2 1   
     2    1    4 1   
     3    1    5 1   
     4    1    6 1   
     5    2    3 2   
     6    2    7 1   
     7    7    8 1   
     8    7   15 1   
     9    8    9 1   
    10    8   11 1   
    11    8   16 1   
    12    9   10 2   
    13    9   19 1   
    14   11   12 1   
    15   11   17 1   
    16   11   18 1   
    17   12   13 1   
    18   12   14 1   
    19   19   20 1   
    20   19   24 1   
    21   20   21 1   
    22   20   23 1   
    23   20   25 1   
    24   21   22 2   
    25   21   29 1   
    26   23   26 1   
    27   23   27 1   
    28   23   28 1   
    29   29   30 1   
    30   29   37 1   
    31   30   31 1   
    32   30   33 1   
    33   30   38 1   
    34   31   32 2   
    35   31   41 1   
    36   33   34 1   
    37   33   39 1   
    38   33   40 1   
    39   34   35 1   
    40   34   36 1   
    41   41   42 1   
    42   41   45 1   
    43   42   43 1   
    44   42   46 1   
    45   42   47 1   
    46   43   44 2   
    47   43   48 1   
    48   48   49 1   
    49   48   56 1   
    50   49   50 1   
    51   49   52 1   
    52   49   57 1   
    53   50   51 2   
    54   50   62 1   
    55   52   53 1   
    56   52   58 1   
    57   52   59 1   
    58   53   54 1   
    59   53   55 2   
    60   54   60 1   
    61   54   61 1   
    62   62   63 1   
    63   62   66 1   
    64   63   64 1   
    65   63   67 1   
    66   63   68 1   
    67   64   65 2   
    68   64   69 1   
    69   69   70 1   
    70   69   76 1   
    71   70   71 1   
    72   70   73 1   
    73   70   77 1   
    74   71   72 2   
    75   71   83 1   
    76   73   74 1   
    77   73   75 1   
    78   73   78 1   
    79   74   80 1   
    80   74   81 1   
    81   74   82 1   
    82   75   79 1   
    83   83   84 1   
    84   83   91 1   
    85   84   85 1   
    86   84   87 1   
    87   84   92 1   
    88   85   86 2   
    89   85  102 1   
    90   87   88 1   
    91   87   89 1   
    92   87   93 1   
    93   88   90 1   
    94   88   94 1   
    95   88   95 1   
    96   89   96 1   
    97   89   97 1   
    98   89   98 1   
    99   90   99 1   
   100   90  100 1   
   101   90  101 1   
   102  102  103 1   
   103  102  110 1   
   104  103  104 1   
   105  103  106 1   
   106  103  111 1   
   107  104  105 2   
   108  104  114 1   
   109  106  107 1   
   110  106  112 1   
   111  106  113 1   
   112  107  108 1   
   113  107  109 1   
   114  114  115 1   
   115  114  125 1   
   116  115  116 1   
   117  115  118 1   
   118  115  126 1   
   119  116  117 2   
   120  116  134 1   
   121  118  119 1   
   122  118  127 1   
   123  118  128 1   
   124  119  120 ar  
   125  119  121 ar  
   126  120  122 ar  
   127  120  129 1   
   128  121  123 ar  
   129  121  130 1   
   130  122  124 ar  
   131  122  131 1   
   132  123  124 ar  
   133  123  132 1   
   134  124  133 1   
   135  134  135 1   
   136  134  140 1   
   137  135  136 1   
   138  135  138 1   
   139  135  141 1   
   140  136  137 2   
   141  136  148 1   
   142  138  139 1   
   143  138  142 1   
   144  138  143 1   
   145  139  140 1   
   146  139  144 1   
   147  139  145 1   
   148  140  146 1   
   149  140  147 1   
   150  148  149 1   
   151  148  157 1   
   152  149  150 1   
   153  149  152 1   
   154  149  158 1   
   155  150  151 2   
   156  150  163 1   
   157  152  153 1   
   158  152  159 1   
   159  152  160 1   
   160  153  154 1   
   161  153  161 1   
   162  153  162 1   
   163  154  155 1   
   164  154  156 1   
   165  163  164 1   
   166  163  168 1   
   167  164  165 1   
   168  164  166 1   
   169  164  167 1   
   170  170  171 1   
   171  170  172 1   
   172  173  174 1   
   173  173  175 1   
   174  176  177 1   
   175  176  178 1   
   176  179  180 1   
   177  179  181 1   
@<TRIPOS>SUBSTRUCTURE
     1 MOL         1 TEMP              0 ****  ****    0 ROOT
