@<TRIPOS>MOLECULE
MOL
  186   183     1     0     0
SMALL
resp


@<TRIPOS>ATOM
      1 C1         11.8010    6.4400   -2.1190 c3        1 MOL     -0.316700
      2 C2         11.5710    5.1200   -1.4050 c         1 MOL      0.525276
      3 O1         12.2540    4.0900   -1.7660 o         1 MOL     -0.590901
      4 H1         12.7730    6.4220   -2.6120 hc        1 MOL      0.087712
      5 H2         11.0200    6.5930   -2.8640 hc        1 MOL      0.087712
      6 H3         11.7770    7.2540   -1.3950 hc        1 MOL      0.087712
      7 N1         10.6930    5.0910   -0.4200 n         1 MOL      0.094312
      8 C3         10.3820    3.9580    0.3390 c3        1 MOL     -0.501467
      9 C4          9.2250    3.1990   -0.3700 c         1 MOL      0.446685
     10 O2          8.2240    3.7950   -0.6500 o         1 MOL     -0.628113
     11 C5         10.0260    4.1800    1.7990 c3        1 MOL      0.236105
     12 C6          9.0450    5.4170    2.2370 c         1 MOL      0.639806
     13 O3          8.6170    6.0900    1.2660 o         1 MOL     -0.647070
     14 O4          8.8330    5.6820    3.4430 o         1 MOL     -0.647070
     15 H4         10.1490    5.8730   -0.0990 hn        1 MOL     -0.026018
     16 H5         11.2670    3.3120    0.3580 h1        1 MOL      0.148771
     17 H6         10.9350    4.4120    2.3470 hc        1 MOL     -0.015375
     18 H7          9.5940    3.2330    2.1310 hc        1 MOL     -0.015375
     19 N2          9.4060    1.9240   -0.7150 n         1 MOL     -0.258865
     20 C7          8.4120    0.9810   -1.3480 c3        1 MOL      0.046360
     21 C8          7.5260    0.3820   -0.2570 c         1 MOL      0.435870
     22 O5          7.4500   -0.8320   -0.1050 o         1 MOL     -0.481630
     23 C9          9.1750   -0.0400   -2.2020 c3        1 MOL     -0.120027
     24 C10         8.3730   -0.9890   -3.1850 c3        1 MOL      0.034078
     25 C11         9.2320   -1.8410   -4.1430 c3        1 MOL     -0.156035
     26 C12        10.1600   -2.8090   -3.4120 c3        1 MOL      0.025521
     27 N3          9.3950   -3.9120   -2.8030 n4        1 MOL     -0.293441
     28 H8         10.2770    1.4770   -0.4500 hn        1 MOL      0.250690
     29 H9          7.7080    1.5810   -1.9250 h1        1 MOL      0.075576
     30 H10         9.7660   -0.6390   -1.5130 hc        1 MOL      0.055002
     31 H11         9.8520    0.5840   -2.7870 hc        1 MOL      0.055002
     32 H12         7.8170   -0.2760   -3.7970 hc        1 MOL      0.030661
     33 H13         7.6670   -1.5910   -2.6080 hc        1 MOL      0.030661
     34 H14         9.9620   -1.2340   -4.6800 hc        1 MOL      0.075913
     35 H15         8.5880   -2.3670   -4.8510 hc        1 MOL      0.075913
     36 H16        10.7200   -2.2180   -2.6940 hx        1 MOL      0.087013
     37 H17        10.8820   -3.2740   -4.0900 hx        1 MOL      0.087013
     38 H18         9.9960   -4.6160   -2.3920 hn        1 MOL      0.319415
     39 H19         8.7630   -3.6250   -2.0800 hn        1 MOL      0.319415
     40 H20         8.8940   -4.4190   -3.5130 hn        1 MOL      0.319415
     41 N4          6.8980    1.2720    0.5280 n         1 MOL     -0.411882
     42 C13         5.9160    0.9490    1.5210 c3        1 MOL      0.050660
     43 C14         4.5350    0.6030    0.8590 c         1 MOL      0.476730
     44 O6          4.1440    1.0560   -0.1910 o         1 MOL     -0.500923
     45 C15         5.8320    2.2050    2.4460 c3        1 MOL      0.173348
     46 C16         5.7440    3.5130    1.6720 c         1 MOL      0.728161
     47 O7          5.4260    3.5610    0.4510 o         1 MOL     -0.795887
     48 O8          6.0480    4.5940    2.2230 o         1 MOL     -0.795887
     49 H21         6.7480    2.1870    0.1290 hn        1 MOL      0.297858
     50 H22         6.2870    0.1030    2.0960 h1        1 MOL      0.085599
     51 H23         6.7140    2.1330    3.0890 hc        1 MOL     -0.012833
     52 H24         4.9190    2.1410    3.0440 hc        1 MOL     -0.012833
     53 N5          3.6580   -0.1660    1.4820 n         1 MOL     -0.563746
     54 C17         3.9040   -1.0480    2.6540 c3        1 MOL      0.058335
     55 C18         4.2000   -2.4010    2.2030 c         1 MOL      0.605958
     56 O9          4.5300   -2.7150    1.0080 o         1 MOL     -0.539478
     57 H25         2.6900    0.0240    1.2740 hn        1 MOL      0.357070
     58 H26         2.9040   -1.1450    3.0860 h1        1 MOL      0.044405
     59 H27         4.6210   -0.5950    3.3460 h1        1 MOL      0.044405
     60 N6          4.1140   -3.3270    3.1830 n         1 MOL     -0.452355
     61 C19         4.1260   -4.7820    3.0460 c3        1 MOL      0.105537
     62 C20         2.8200   -5.2650    2.4450 c         1 MOL      0.407841
     63 O10         1.7590   -4.5310    2.5280 o         1 MOL     -0.515781
     64 C21         4.5250   -5.4330    4.3840 c3        1 MOL     -0.196345
     65 C22         5.9010   -5.0380    4.8140 c         1 MOL      0.681048
     66 O11         6.1450   -4.5580    5.9730 o         1 MOL     -0.707116
     67 O12         6.8440   -5.2410    3.9940 o         1 MOL     -0.707116
     68 H28         3.8100   -3.0460    4.1000 hn        1 MOL      0.264775
     69 H29         4.8800   -5.0260    2.2890 h1        1 MOL     -0.001857
     70 H30         4.4690   -6.5160    4.2860 hc        1 MOL      0.040203
     71 H31         3.8080   -5.2700    5.1820 hc        1 MOL      0.040203
     72 N7          2.7820   -6.4680    1.9480 n         1 MOL     -0.237707
     73 C23         1.6360   -7.2740    1.4130 c3        1 MOL     -0.197906
     74 C24         0.9520   -6.8230    0.1030 c         1 MOL      0.626095
     75 O13         0.5450   -7.7070   -0.6620 o         1 MOL     -0.583448
     76 H32         3.7200   -6.8490    1.9780 hn        1 MOL      0.254737
     77 H33         0.8500   -7.3080    2.1740 h1        1 MOL      0.105048
     78 H34         2.0580   -8.2650    1.2800 h1        1 MOL      0.105048
     79 N8          0.9090   -5.5450   -0.2070 n         1 MOL     -0.261561
     80 C25         0.3350   -4.9810   -1.3820 c3        1 MOL     -0.074750
     81 C26        -0.5440   -3.7370   -1.0640 c         1 MOL      0.397889
     82 O14        -0.6800   -3.3660    0.1160 o         1 MOL     -0.455783
     83 C27         1.5300   -4.4750   -2.2920 c3        1 MOL      0.336607
     84 C28         2.5590   -3.6090   -1.5180 c3        1 MOL     -0.276295
     85 O15         2.1840   -5.5160   -2.9870 oh        1 MOL     -0.589069
     86 H35         1.4030   -4.9060    0.4000 hn        1 MOL      0.141114
     87 H36        -0.3340   -5.7120   -1.8190 h1        1 MOL      0.082778
     88 H37         1.1610   -3.7810   -3.0560 h1        1 MOL     -0.050585
     89 H38         1.7470   -5.5640   -3.8460 ho        1 MOL      0.359944
     90 H39         2.0940   -2.6280   -1.4150 hc        1 MOL      0.090227
     91 H40         2.7980   -4.0210   -0.5340 hc        1 MOL      0.090227
     92 H41         3.5380   -3.5980   -1.9980 hc        1 MOL      0.090227
     93 N9         -1.2720   -3.1490   -2.0480 n         1 MOL     -0.136729
     94 C29        -1.9070   -1.8190   -2.0300 c3        1 MOL     -0.062173
     95 C30        -3.0880   -1.7820   -0.9910 c         1 MOL      0.575727
     96 O16        -3.0880   -0.7610   -0.2900 o         1 MOL     -0.547348
     97 C31        -2.2850   -1.5250   -3.4920 c3        1 MOL      0.134527
     98 C32        -1.1460   -1.6400   -4.4620 c3        1 MOL      0.024251
     99 C33        -3.1730   -0.2220   -3.5810 c3        1 MOL     -0.182264
    100 C34        -0.0130   -0.6610   -4.2680 c3        1 MOL     -0.136486
    101 H42        -1.4350   -3.7490   -2.8320 hn        1 MOL      0.133201
    102 H43        -1.1560   -1.1270   -1.6590 h1        1 MOL      0.095362
    103 H44        -2.9710   -2.2870   -3.8630 hc        1 MOL     -0.014620
    104 H45        -1.5950   -1.4670   -5.4470 hc        1 MOL      0.000612
    105 H46        -0.7570   -2.6420   -4.6260 hc        1 MOL      0.000612
    106 H47        -4.1400   -0.3580   -3.0790 hc        1 MOL      0.052606
    107 H48        -2.6600    0.5550   -3.0010 hc        1 MOL      0.052606
    108 H49        -3.3320    0.0980   -4.6070 hc        1 MOL      0.052606
    109 H50         0.7600   -0.7900   -5.0200 hc        1 MOL      0.026674
    110 H51        -0.3690    0.3730   -4.2290 hc        1 MOL      0.026674
    111 H52         0.4450   -0.8290   -3.2920 hc        1 MOL      0.026674
    112 N10        -3.8960   -2.8160   -0.8660 n         1 MOL     -0.637558
    113 C35        -5.1280   -2.8120   -0.0550 c3        1 MOL      0.122742
    114 C36        -6.3200   -2.9420   -0.9620 c         1 MOL      0.643072
    115 O17        -6.3190   -3.5620   -2.0550 o         1 MOL     -0.555257
    116 C37        -4.9470   -3.8470    1.0870 c3        1 MOL      0.418310
    117 C38        -5.9800   -3.5900    2.1140 c3        1 MOL     -0.388768
    118 O18        -5.0880   -5.1100    0.5020 oh        1 MOL     -0.619527
    119 H53        -3.8010   -3.5530   -1.5560 hn        1 MOL      0.273387
    120 H54        -5.2410   -1.8330    0.4260 h1        1 MOL      0.048623
    121 H55        -3.9660   -3.7450    1.5430 h1        1 MOL      0.033087
    122 H56        -4.2680   -5.5760    0.6460 ho        1 MOL      0.394943
    123 H57        -5.7060   -4.2600    2.9330 hc        1 MOL      0.087613
    124 H58        -6.0180   -2.5780    2.4950 hc        1 MOL      0.087613
    125 H59        -6.9610   -3.8630    1.7100 hc        1 MOL      0.087613
    126 N11        -7.4090   -2.4370   -0.5020 n         1 MOL     -0.572353
    127 C39        -8.7120   -2.5950   -1.1340 c3        1 MOL      0.057735
    128 C40        -9.4470   -1.2610   -1.3520 c         1 MOL      0.576011
    129 O19        -9.8610   -0.9170   -2.4520 o         1 MOL     -0.542255
    130 C41        -9.5200   -3.5270   -0.2490 c3        1 MOL      0.308332
    131 C42       -10.7940   -3.8980   -0.9310 c3        1 MOL     -0.486200
    132 O20        -9.7220   -2.9290    1.0040 oh        1 MOL     -0.632983
    133 H60        -7.3450   -1.8340    0.2980 hn        1 MOL      0.300621
    134 H61        -8.6670   -3.0130   -2.1380 h1        1 MOL      0.083262
    135 H62        -8.9190   -4.4240   -0.1270 h1        1 MOL      0.052276
    136 H63        -9.8430   -3.6100    1.6680 ho        1 MOL      0.408930
    137 H64       -10.6620   -4.4130   -1.8820 hc        1 MOL      0.128362
    138 H65       -11.2340   -4.7020   -0.3430 hc        1 MOL      0.128362
    139 H66       -11.4910   -3.0670   -1.0460 hc        1 MOL      0.128362
    140 N12        -9.5210   -0.3960   -0.2840 n         1 MOL     -0.407464
    141 C43       -10.1220    0.9580   -0.2370 c3        1 MOL      0.034286
    142 C44        -9.1800    1.9010    0.4950 c         1 MOL      0.423734
    143 O21        -8.7900    1.4030    1.5750 o         1 MOL     -0.487912
    144 C45       -11.5740    0.9470    0.2310 c3        1 MOL     -0.111947
    145 C46       -12.2460    2.3660    0.2150 c3        1 MOL      0.058250
    146 C47       -13.7600    2.2810    0.6080 c3        1 MOL     -0.035250
    147 C48       -14.1690    3.6890    0.8580 c3        1 MOL      0.124419
    148 N13       -15.4320    3.6920    1.5360 n4        1 MOL     -0.205657
    149 H67        -8.9720   -0.6460    0.5250 hn        1 MOL      0.275661
    150 H68       -10.1510    1.2870   -1.2840 h1        1 MOL      0.046100
    151 H69       -11.6350    0.4650    1.1990 hc        1 MOL      0.064239
    152 H70       -12.0120    0.2300   -0.4690 hc        1 MOL      0.064239
    153 H71       -12.0970    2.7330   -0.7990 hc        1 MOL     -0.005041
    154 H72       -11.7420    3.0590    0.8830 hc        1 MOL     -0.005041
    155 H73       -13.9830    1.6510    1.4680 hc        1 MOL      0.019597
    156 H74       -14.2710    1.8070   -0.2370 hc        1 MOL      0.019597
    157 H75       -14.0980    4.3400   -0.0200 hx        1 MOL      0.041319
    158 H76       -13.4240    4.1850    1.4820 hx        1 MOL      0.041319
    159 H77       -15.4270    4.4710    2.1790 hn        1 MOL      0.271614
    160 H78       -16.1980    3.9220    0.9250 hn        1 MOL      0.271614
    161 H79       -15.7850    2.9070    2.0610 hn        1 MOL      0.271614
    162 N14        -8.8190    3.0560   -0.0560 n         1 MOL     -0.401523
    163 C49        -8.1520    4.1640    0.7230 c3        1 MOL      0.417839
    164 C50        -6.6360    3.9810    0.7390 c         1 MOL      0.227412
    165 O22        -6.0860    3.8040    1.8530 o         1 MOL     -0.489480
    166 C51        -8.6130    5.5600    0.3580 c3        1 MOL      0.005016
    167 C52       -10.0150    5.7690    0.9750 c3        1 MOL     -0.242542
    168 C53       -10.6070    7.1950    0.6830 c         1 MOL      0.706952
    169 O23       -10.0010    7.8490   -0.1820 o         1 MOL     -0.704880
    170 O24       -11.5490    7.7010    1.3460 o         1 MOL     -0.704880
    171 H80        -9.1280    3.2960   -0.9880 hn        1 MOL      0.274613
    172 H81        -8.4380    4.0440    1.7760 h1        1 MOL     -0.021609
    173 H82        -8.6070    5.6110   -0.7350 hc        1 MOL      0.039074
    174 H83        -7.9510    6.3030    0.8150 hc        1 MOL      0.039074
    175 H84       -10.0370    5.6450    2.0550 hc        1 MOL      0.028182
    176 H85       -10.5240    4.9220    0.5160 hc        1 MOL      0.028182
    177 N15        -5.9550    3.8860   -0.4360 n         1 MOL     -0.332721
    178 C54        -6.3760    4.2570   -1.7710 c3        1 MOL     -0.045954
    179 H86        -7.3190    4.8020   -1.7150 h1        1 MOL      0.041902
    180 H87        -5.6170    4.8910   -2.2290 h1        1 MOL      0.041902
    181 H88        -6.5110    3.3590   -2.3730 h1        1 MOL      0.041902
    182 H89        -5.0000    3.5920   -0.2860 hn        1 MOL      0.307985
    183 Ca1         6.5000    5.9250   -0.2110 Ca        1 MOL      1.718982
    184 O25         5.7420    4.5170   -2.2980 oh        1 MOL     -0.817631
    185 H90         6.4460    4.5480   -2.9490 ho        1 MOL      0.417794
    186 H91         5.2550    3.7180   -2.5300 ho        1 MOL      0.417794
@<TRIPOS>BOND
     1    1    2 1   
     2    1    4 1   
     3    1    5 1   
     4    1    6 1   
     5    2    3 2   
     6    2    7 1   
     7    7    8 1   
     8    7   15 1   
     9    8    9 1   
    10    8   11 1   
    11    8   16 1   
    12    9   10 2   
    13    9   19 1   
    14   11   12 1   
    15   11   17 1   
    16   11   18 1   
    17   12   13 1   
    18   12   14 1   
    19   19   20 1   
    20   19   28 1   
    21   20   21 1   
    22   20   23 1   
    23   20   29 1   
    24   21   22 2   
    25   21   41 1   
    26   23   24 1   
    27   23   30 1   
    28   23   31 1   
    29   24   25 1   
    30   24   32 1   
    31   24   33 1   
    32   25   26 1   
    33   25   34 1   
    34   25   35 1   
    35   26   27 1   
    36   26   36 1   
    37   26   37 1   
    38   27   38 1   
    39   27   39 1   
    40   27   40 1   
    41   41   42 1   
    42   41   49 1   
    43   42   43 1   
    44   42   45 1   
    45   42   50 1   
    46   43   44 2   
    47   43   53 1   
    48   45   46 1   
    49   45   51 1   
    50   45   52 1   
    51   46   47 1   
    52   46   48 1   
    53   53   54 1   
    54   53   57 1   
    55   54   55 1   
    56   54   58 1   
    57   54   59 1   
    58   55   56 2   
    59   55   60 1   
    60   60   61 1   
    61   60   68 1   
    62   61   62 1   
    63   61   64 1   
    64   61   69 1   
    65   62   63 2   
    66   62   72 1   
    67   64   65 1   
    68   64   70 1   
    69   64   71 1   
    70   65   66 1   
    71   65   67 1   
    72   72   73 1   
    73   72   76 1   
    74   73   74 1   
    75   73   77 1   
    76   73   78 1   
    77   74   75 2   
    78   74   79 1   
    79   79   80 1   
    80   79   86 1   
    81   80   81 1   
    82   80   83 1   
    83   80   87 1   
    84   81   82 2   
    85   81   93 1   
    86   83   84 1   
    87   83   85 1   
    88   83   88 1   
    89   84   90 1   
    90   84   91 1   
    91   84   92 1   
    92   85   89 1   
    93   93   94 1   
    94   93  101 1   
    95   94   95 1   
    96   94   97 1   
    97   94  102 1   
    98   95   96 2   
    99   95  112 1   
   100   97   98 1   
   101   97   99 1   
   102   97  103 1   
   103   98  100 1   
   104   98  104 1   
   105   98  105 1   
   106   99  106 1   
   107   99  107 1   
   108   99  108 1   
   109  100  109 1   
   110  100  110 1   
   111  100  111 1   
   112  112  113 1   
   113  112  119 1   
   114  113  114 1   
   115  113  116 1   
   116  113  120 1   
   117  114  115 2   
   118  114  126 1   
   119  116  117 1   
   120  116  118 1   
   121  116  121 1   
   122  117  123 1   
   123  117  124 1   
   124  117  125 1   
   125  118  122 1   
   126  126  127 1   
   127  126  133 1   
   128  127  128 1   
   129  127  130 1   
   130  127  134 1   
   131  128  129 2   
   132  128  140 1   
   133  130  131 1   
   134  130  132 1   
   135  130  135 1   
   136  131  137 1   
   137  131  138 1   
   138  131  139 1   
   139  132  136 1   
   140  140  141 1   
   141  140  149 1   
   142  141  142 1   
   143  141  144 1   
   144  141  150 1   
   145  142  143 2   
   146  142  162 1   
   147  144  145 1   
   148  144  151 1   
   149  144  152 1   
   150  145  146 1   
   151  145  153 1   
   152  145  154 1   
   153  146  147 1   
   154  146  155 1   
   155  146  156 1   
   156  147  148 1   
   157  147  157 1   
   158  147  158 1   
   159  148  159 1   
   160  148  160 1   
   161  148  161 1   
   162  162  163 1   
   163  162  171 1   
   164  163  164 1   
   165  163  166 1   
   166  163  172 1   
   167  164  165 2   
   168  164  177 1   
   169  166  167 1   
   170  166  173 1   
   171  166  174 1   
   172  167  168 1   
   173  167  175 1   
   174  167  176 1   
   175  168  169 1   
   176  168  170 1   
   177  177  178 1   
   178  177  182 1   
   179  178  179 1   
   180  178  180 1   
   181  178  181 1   
   182  184  185 1   
   183  184  186 1   
@<TRIPOS>SUBSTRUCTURE
     1 MOL         1 TEMP              0 ****  ****    0 ROOT
