@<TRIPOS>MOLECULE
MOL
  189   185     1     0     0
SMALL
resp


@<TRIPOS>ATOM
      1 C1          8.9830    2.1630    0.2330 c3        1 MOL     -0.360689
      2 C2          7.8800    1.2120   -0.1730 c         1 MOL      0.651953
      3 O1          7.1020    0.7860    0.6910 o         1 MOL     -0.658321
      4 H1          8.5450    3.0770    0.6340 hc        1 MOL      0.097642
      5 H2          9.6040    1.6940    0.9970 hc        1 MOL      0.097642
      6 H3          9.5950    2.4040   -0.6350 hc        1 MOL      0.097642
      7 N1          7.6780    0.9290   -1.4530 n         1 MOL     -0.490866
      8 C3          6.7250   -0.0400   -2.0090 c3        1 MOL      0.087361
      9 C4          7.0850   -1.4730   -1.5280 c         1 MOL      0.432970
     10 O2          7.6530   -2.2590   -2.2760 o         1 MOL     -0.477112
     11 C5          6.7750   -0.0300   -3.5570 c3        1 MOL     -0.196121
     12 C6          8.0870   -0.0430   -4.2540 c         1 MOL      0.661454
     13 O3          9.1590    0.0170   -3.5920 o         1 MOL     -0.656869
     14 O4          8.0790   -0.1040   -5.5290 o         1 MOL     -0.656869
     15 H4          8.3370    1.3900   -2.0660 hn        1 MOL      0.287066
     16 H5          5.7420    0.3260   -1.6870 h1        1 MOL      0.044914
     17 H6          6.1390    0.7980   -3.8490 hc        1 MOL      0.085294
     18 H7          6.2500   -0.9270   -3.9010 hc        1 MOL      0.085294
     19 N2          6.8370   -1.7690   -0.2790 n         1 MOL     -0.325889
     20 C7          6.6730   -3.0780    0.3630 c3        1 MOL      0.224209
     21 C8          5.2490   -3.6180    0.2600 c         1 MOL      0.610439
     22 O5          5.1350   -4.8280    0.0860 o         1 MOL     -0.567885
     23 C9          7.2300   -3.0300    1.8420 c3        1 MOL     -0.182114
     24 C10         8.6460   -2.4950    2.0530 c3        1 MOL      0.088918
     25 C11         9.6550   -3.3270    1.2400 c3        1 MOL     -0.067520
     26 C12        11.0470   -2.9980    1.7800 c3        1 MOL      0.000734
     27 N3         11.9690   -3.7740    0.9520 n4        1 MOL     -0.350140
     28 H8          6.7570   -0.9160    0.2550 hn        1 MOL      0.269443
     29 H9          7.3050   -3.8000   -0.1530 h1        1 MOL     -0.042986
     30 H10         7.1680   -4.0140    2.2960 hc        1 MOL      0.037285
     31 H11         6.6080   -2.3410    2.4220 hc        1 MOL      0.037285
     32 H12         8.8700   -2.4700    3.1230 hc        1 MOL     -0.000183
     33 H13         8.6570   -1.4520    1.7450 hc        1 MOL     -0.000183
     34 H14         9.6370   -2.9730    0.2130 hc        1 MOL      0.068928
     35 H15         9.4250   -4.3820    1.3580 hc        1 MOL      0.068928
     36 H16        11.0930   -3.2950    2.8230 hx        1 MOL      0.082822
     37 H17        11.1850   -1.9290    1.6170 hx        1 MOL      0.082822
     38 H18        11.8480   -3.4650   -0.0060 hn        1 MOL      0.312997
     39 H19        12.9330   -3.6220    1.2160 hn        1 MOL      0.312997
     40 H20        11.7330   -4.7500    1.0890 hn        1 MOL      0.312997
     41 N4          4.1820   -2.8120    0.3930 n         1 MOL     -0.591999
     42 C13         4.0410   -1.4970    1.0550 c3        1 MOL      0.220243
     43 C14         3.7930   -0.2710    0.1440 c         1 MOL      0.191688
     44 O6          3.4460   -0.4670   -1.0160 o         1 MOL     -0.412420
     45 C15         2.8880   -1.5670    2.1270 c3        1 MOL     -0.326347
     46 C16         1.5080   -1.7010    1.4990 c         1 MOL      0.911487
     47 O7          0.9910   -0.7450    0.9560 o         1 MOL     -0.734305
     48 O8          0.9660   -2.7840    1.4740 o         1 MOL     -0.734305
     49 H21         3.3210   -3.3140    0.2370 hn        1 MOL      0.361055
     50 H22         4.9980   -1.2620    1.5050 h1        1 MOL      0.037285
     51 H23         2.8550   -0.6180    2.6470 hc        1 MOL      0.052474
     52 H24         3.0730   -2.4200    2.7790 hc        1 MOL      0.052474
     53 N5          4.1060    0.9100    0.5710 n         1 MOL     -0.245583
     54 C17         4.0450    2.1750   -0.2140 c3        1 MOL     -0.158923
     55 C18         2.6800    2.7260   -0.6200 c         1 MOL      0.584935
     56 O9          1.6620    2.0630   -0.3700 o         1 MOL     -0.605612
     57 H25         4.3230    1.0460    1.5440 hn        1 MOL      0.283066
     58 H26         4.6390    1.8920   -1.0870 h1        1 MOL      0.119377
     59 H27         4.5630    2.9850    0.2940 h1        1 MOL      0.119377
     60 N6          2.5320    3.9180   -1.1460 n         1 MOL     -0.420951
     61 C19         1.3850    4.6170   -1.7260 c3        1 MOL      0.014638
     62 C20         1.6790    6.1450   -1.5800 c         1 MOL      0.483435
     63 O10         2.8070    6.6180   -1.3950 o         1 MOL     -0.518906
     64 C21         1.2500    4.2210   -3.2820 c3        1 MOL     -0.258098
     65 C22         1.0830    2.7510   -3.3990 c         1 MOL      0.672945
     66 O11         0.1860    2.1710   -2.6810 o         1 MOL     -0.665037
     67 O12         1.5800    2.2340   -4.4190 o         1 MOL     -0.665037
     68 H28         3.4330    4.3340   -1.3380 hn        1 MOL      0.260702
     69 H29         0.4440    4.4610   -1.2220 h1        1 MOL      0.160225
     70 H30         2.2370    4.4590   -3.6980 hc        1 MOL      0.101215
     71 H31         0.4940    4.8090   -3.7970 hc        1 MOL      0.101215
     72 N7          0.6530    7.0580   -1.6880 n         1 MOL     -0.482911
     73 C23        -0.7890    6.7580   -1.7660 c3        1 MOL     -0.039262
     74 C24        -1.2820    6.2980   -0.3740 c         1 MOL      0.750392
     75 O13        -0.7890    6.7820    0.6140 o         1 MOL     -0.540427
     76 H32         0.8820    8.0210   -1.4810 hn        1 MOL      0.327109
     77 H33        -0.9060    5.9370   -2.4740 h1        1 MOL      0.057049
     78 H34        -1.3200    7.6510   -2.0950 h1        1 MOL      0.057049
     79 N8         -2.2950    5.3900   -0.4210 n         1 MOL     -0.860076
     80 C25        -2.8420    4.6900    0.7560 c3        1 MOL      0.348814
     81 C26        -1.9270    3.5100    1.1510 c         1 MOL      0.716399
     82 O14        -1.2260    2.9580    0.3210 o         1 MOL     -0.787849
     83 C27        -4.2130    4.1160    0.3610 c3        1 MOL      0.521001
     84 C28        -5.1550    5.1070   -0.2870 c3        1 MOL     -0.396761
     85 O15        -4.9820    3.5230    1.4300 oh        1 MOL     -0.719174
     86 H35        -2.5310    5.1450   -1.3770 hn        1 MOL      0.344097
     87 H36        -2.9440    5.3830    1.5920 h1        1 MOL      0.025478
     88 H37        -4.0650    3.3070   -0.3580 h1        1 MOL     -0.044765
     89 H38        -5.6640    3.0320    0.9670 ho        1 MOL      0.407400
     90 H39        -4.8380    6.0610    0.1400 hc        1 MOL      0.089648
     91 H40        -5.0240    5.0160   -1.3600 hc        1 MOL      0.089648
     92 H41        -6.1880    4.8070   -0.1170 hc        1 MOL      0.089648
     93 N9         -1.9310    3.3130    2.5240 n         1 MOL     -0.872991
     94 C29        -1.2380    2.2400    3.2660 c3        1 MOL      0.604265
     95 C30        -1.6340    0.8210    2.8900 c         1 MOL      0.410253
     96 O16        -1.7630    0.4960    1.7280 o         1 MOL     -0.527291
     97 C31         0.3420    2.2480    3.0820 c3        1 MOL      0.019227
     98 C32         0.9090    3.6620    3.2170 c3        1 MOL      0.195481
     99 C33         1.1280    1.2240    3.9730 c3        1 MOL     -0.365228
    100 C34         0.8760    4.1890    4.6530 c3        1 MOL     -0.335431
    101 H42        -2.4660    3.9910    3.0460 hn        1 MOL      0.360678
    102 H43        -1.4440    2.3810    4.3300 h1        1 MOL     -0.053457
    103 H44         0.5390    2.0100    2.0280 hc        1 MOL      0.029889
    104 H45         0.3920    4.3700    2.5630 hc        1 MOL     -0.007445
    105 H46         1.9200    3.7090    2.8270 hc        1 MOL     -0.007445
    106 H47         2.1880    1.3010    3.7130 hc        1 MOL      0.092821
    107 H48         0.9470    1.3620    5.0380 hc        1 MOL      0.092821
    108 H49         0.8660    0.2110    3.7020 hc        1 MOL      0.092821
    109 H50        -0.1440    4.0640    5.0050 hc        1 MOL      0.069097
    110 H51         1.5120    3.5620    5.2730 hc        1 MOL      0.069097
    111 H52         1.1200    5.2470    4.6080 hc        1 MOL      0.069097
    112 N10        -1.9100   -0.0390    3.9380 n         1 MOL     -0.699089
    113 C35        -2.0530   -1.5120    3.7100 c3        1 MOL     -0.027360
    114 C36        -3.4490   -2.0080    3.2360 c         1 MOL      0.606980
    115 O17        -3.7790   -3.1780    3.3230 o         1 MOL     -0.586941
    116 C37        -1.6770   -2.2790    4.9960 c3        1 MOL      0.497323
    117 C38        -2.7310   -2.0610    6.0960 c3        1 MOL     -0.202016
    118 O18        -0.3620   -1.9310    5.4190 oh        1 MOL     -0.658857
    119 H53        -1.7940    0.2680    4.8960 hn        1 MOL      0.371555
    120 H54        -1.3390   -1.7070    2.9030 h1        1 MOL      0.037831
    121 H55        -1.6980   -3.3510    4.7910 h1        1 MOL     -0.021042
    122 H56         0.2800   -2.5180    5.0230 ho        1 MOL      0.408226
    123 H57        -2.5020   -2.6860    6.9710 hc        1 MOL      0.045026
    124 H58        -2.8570   -1.0220    6.3820 hc        1 MOL      0.045026
    125 H59        -3.7310   -2.3100    5.7620 hc        1 MOL      0.045026
    126 N11        -4.3730   -1.1850    2.7760 n         1 MOL     -0.195441
    127 C39        -5.8240   -1.5070    2.6300 c3        1 MOL     -0.147555
    128 C40        -6.1480   -1.2560    1.1520 c         1 MOL      0.479107
    129 O19        -5.6290   -0.3160    0.5060 o         1 MOL     -0.587034
    130 C41        -6.6450   -0.5780    3.5070 c3        1 MOL      0.387345
    131 C42        -6.5920   -0.8600    4.9410 c3        1 MOL     -0.304776
    132 O20        -6.3020    0.7630    3.3570 oh        1 MOL     -0.580614
    133 H60        -4.2030   -0.2090    2.9420 hn        1 MOL      0.207146
    134 H61        -6.0520   -2.5550    2.8480 h1        1 MOL      0.116948
    135 H62        -7.6930   -0.6780    3.2520 h1        1 MOL     -0.026149
    136 H63        -6.4350    0.9590    2.4330 ho        1 MOL      0.382947
    137 H64        -5.6290   -0.5290    5.3350 hc        1 MOL      0.089189
    138 H65        -7.3550   -0.3070    5.4960 hc        1 MOL      0.089189
    139 H66        -6.7830   -1.9080    5.1540 hc        1 MOL      0.089189
    140 N12        -6.9460   -2.1210    0.5650 n         1 MOL     -0.536442
    141 C43        -7.1280   -2.1800   -0.9380 c3        1 MOL      0.138375
    142 C44        -5.7810   -2.2210   -1.6920 c         1 MOL      0.590302
    143 O21        -5.6450   -1.6820   -2.8060 o         1 MOL     -0.535662
    144 C45        -8.0020   -1.0450   -1.4180 c3        1 MOL     -0.314891
    145 C46        -8.8510   -1.4430   -2.6730 c3        1 MOL     -0.077682
    146 C47        -9.3940   -0.1380   -3.2560 c3        1 MOL      0.083032
    147 C48       -10.2730   -0.4470   -4.4710 c3        1 MOL      0.006875
    148 N13       -10.7000    0.8280   -4.9390 n4        1 MOL     -0.215865
    149 H67        -7.2990   -2.8510    1.1580 hn        1 MOL      0.311810
    150 H68        -7.6400   -3.1060   -1.1710 h1        1 MOL      0.082396
    151 H69        -7.4170   -0.1520   -1.6130 hc        1 MOL      0.133210
    152 H70        -8.7930   -0.8240   -0.7060 hc        1 MOL      0.133210
    153 H71        -9.6690   -2.1470   -2.5570 hc        1 MOL      0.047876
    154 H72        -8.2440   -1.9920   -3.3910 hc        1 MOL      0.047876
    155 H73        -8.5300    0.4900   -3.4620 hc        1 MOL      0.001417
    156 H74        -9.9530    0.3600   -2.4630 hc        1 MOL      0.001417
    157 H75       -11.0920   -1.0810   -4.1430 hx        1 MOL      0.085004
    158 H76        -9.6650   -0.9320   -5.2310 hx        1 MOL      0.085004
    159 H77       -11.2440    1.2950   -4.2350 hn        1 MOL      0.211051
    160 H78        -9.9060    1.3710   -5.2550 hn        1 MOL      0.211051
    161 H79       -11.2740    0.7020   -5.7580 hn        1 MOL      0.211051
    162 N14        -4.7510   -2.8540   -1.0640 n         1 MOL     -0.480250
    163 C49        -3.4150   -3.1600   -1.6310 c3        1 MOL      0.281403
    164 C50        -2.2560   -2.8050   -0.6350 c         1 MOL      0.361920
    165 O22        -1.8710   -1.6240   -0.5530 o         1 MOL     -0.607815
    166 C51        -3.4410   -4.5680   -2.2140 c3        1 MOL     -0.026743
    167 C52        -4.5090   -4.8100   -3.2930 c3        1 MOL     -0.198599
    168 C53        -4.4860   -6.1170   -3.9570 c         1 MOL      0.745570
    169 O23        -5.4620   -6.8990   -3.7150 o         1 MOL     -0.665793
    170 O24        -3.5920   -6.4980   -4.6980 o         1 MOL     -0.665793
    171 H80        -4.9380   -3.2250   -0.1420 hn        1 MOL      0.291959
    172 H81        -3.2190   -2.5190   -2.4860 h1        1 MOL      0.084484
    173 H82        -3.7110   -5.2860   -1.4380 hc        1 MOL      0.024873
    174 H83        -2.5030   -4.8400   -2.6930 hc        1 MOL      0.024873
    175 H84        -4.3650   -4.1300   -4.1450 hc        1 MOL      0.014578
    176 H85        -5.4990   -4.6660   -2.8650 hc        1 MOL      0.014578
    177 N15        -1.5250   -3.6050    0.1870 n         1 MOL     -0.272799
    178 C54        -1.8580   -4.9460    0.5970 c3        1 MOL     -0.130467
    179 H86        -1.1120   -5.3060    1.3050 h1        1 MOL      0.063231
    180 H87        -2.8390   -4.9470    1.0720 h1        1 MOL      0.063231
    181 H88        -1.8760   -5.5990   -0.2750 h1        1 MOL      0.063231
    182 H89        -0.8360   -3.1650    0.7710 hn        1 MOL      0.331464
    183 Ca1        -0.5570    0.6310   -0.5870 Ca        1 MOL      1.814080
    184 O25        -3.3520    0.7230   -1.1090 oh        1 MOL     -0.926105
    185 H90        -4.0840    0.8480   -1.7150 ho        1 MOL      0.443509
    186 H91        -3.7670    0.5090   -0.2720 ho        1 MOL      0.443509
    187 O26        -0.1540   -0.9470   -2.8050 oh        1 MOL     -0.926105
    188 H92        -0.7370   -1.3220   -3.4600 ho        1 MOL      0.443509
    189 H93         0.6470   -0.7300   -3.2830 ho        1 MOL      0.443509
@<TRIPOS>BOND
     1    1    2 1   
     2    1    4 1   
     3    1    5 1   
     4    1    6 1   
     5    2    3 2   
     6    2    7 1   
     7    7    8 1   
     8    7   15 1   
     9    8    9 1   
    10    8   11 1   
    11    8   16 1   
    12    9   10 2   
    13    9   19 1   
    14   11   12 1   
    15   11   17 1   
    16   11   18 1   
    17   12   13 1   
    18   12   14 1   
    19   19   20 1   
    20   19   28 1   
    21   20   21 1   
    22   20   23 1   
    23   20   29 1   
    24   21   22 2   
    25   21   41 1   
    26   23   24 1   
    27   23   30 1   
    28   23   31 1   
    29   24   25 1   
    30   24   32 1   
    31   24   33 1   
    32   25   26 1   
    33   25   34 1   
    34   25   35 1   
    35   26   27 1   
    36   26   36 1   
    37   26   37 1   
    38   27   38 1   
    39   27   39 1   
    40   27   40 1   
    41   41   42 1   
    42   41   49 1   
    43   42   43 1   
    44   42   45 1   
    45   42   50 1   
    46   43   44 2   
    47   43   53 1   
    48   45   46 1   
    49   45   51 1   
    50   45   52 1   
    51   46   47 1   
    52   46   48 1   
    53   53   54 1   
    54   53   57 1   
    55   54   55 1   
    56   54   58 1   
    57   54   59 1   
    58   55   56 2   
    59   55   60 1   
    60   60   61 1   
    61   60   68 1   
    62   61   62 1   
    63   61   64 1   
    64   61   69 1   
    65   62   63 2   
    66   62   72 1   
    67   64   65 1   
    68   64   70 1   
    69   64   71 1   
    70   65   66 1   
    71   65   67 1   
    72   72   73 1   
    73   72   76 1   
    74   73   74 1   
    75   73   77 1   
    76   73   78 1   
    77   74   75 2   
    78   74   79 1   
    79   79   80 1   
    80   79   86 1   
    81   80   81 1   
    82   80   83 1   
    83   80   87 1   
    84   81   82 2   
    85   81   93 1   
    86   83   84 1   
    87   83   85 1   
    88   83   88 1   
    89   84   90 1   
    90   84   91 1   
    91   84   92 1   
    92   85   89 1   
    93   93   94 1   
    94   93  101 1   
    95   94   95 1   
    96   94   97 1   
    97   94  102 1   
    98   95   96 2   
    99   95  112 1   
   100   97   98 1   
   101   97   99 1   
   102   97  103 1   
   103   98  100 1   
   104   98  104 1   
   105   98  105 1   
   106   99  106 1   
   107   99  107 1   
   108   99  108 1   
   109  100  109 1   
   110  100  110 1   
   111  100  111 1   
   112  112  113 1   
   113  112  119 1   
   114  113  114 1   
   115  113  116 1   
   116  113  120 1   
   117  114  115 2   
   118  114  126 1   
   119  116  117 1   
   120  116  118 1   
   121  116  121 1   
   122  117  123 1   
   123  117  124 1   
   124  117  125 1   
   125  118  122 1   
   126  126  127 1   
   127  126  133 1   
   128  127  128 1   
   129  127  130 1   
   130  127  134 1   
   131  128  129 2   
   132  128  140 1   
   133  130  131 1   
   134  130  132 1   
   135  130  135 1   
   136  131  137 1   
   137  131  138 1   
   138  131  139 1   
   139  132  136 1   
   140  140  141 1   
   141  140  149 1   
   142  141  142 1   
   143  141  144 1   
   144  141  150 1   
   145  142  143 2   
   146  142  162 1   
   147  144  145 1   
   148  144  151 1   
   149  144  152 1   
   150  145  146 1   
   151  145  153 1   
   152  145  154 1   
   153  146  147 1   
   154  146  155 1   
   155  146  156 1   
   156  147  148 1   
   157  147  157 1   
   158  147  158 1   
   159  148  159 1   
   160  148  160 1   
   161  148  161 1   
   162  162  163 1   
   163  162  171 1   
   164  163  164 1   
   165  163  166 1   
   166  163  172 1   
   167  164  165 2   
   168  164  177 1   
   169  166  167 1   
   170  166  173 1   
   171  166  174 1   
   172  167  168 1   
   173  167  175 1   
   174  167  176 1   
   175  168  169 1   
   176  168  170 1   
   177  177  178 1   
   178  177  182 1   
   179  178  179 1   
   180  178  180 1   
   181  178  181 1   
   182  184  185 1   
   183  184  186 1   
   184  187  188 1   
   185  187  189 1   
@<TRIPOS>SUBSTRUCTURE
     1 MOL         1 TEMP              0 ****  ****    0 ROOT
