@<TRIPOS>MOLECULE
MOL
  189   185     1     0     0
SMALL
resp


@<TRIPOS>ATOM
      1 C1          5.4240    4.1270   -3.3220 c3        1 MOL     -0.461248
      2 C2          5.9250    3.1850   -2.1420 c         1 MOL      0.840056
      3 O1          5.2470    2.9170   -1.0920 o         1 MOL     -0.687322
      4 H1          6.2850    4.5550   -3.8360 hc        1 MOL      0.119714
      5 H2          4.8340    3.5440   -4.0290 hc        1 MOL      0.119714
      6 H3          4.8110    4.9300   -2.9120 hc        1 MOL      0.119714
      7 N1          7.1720    2.6580   -2.2790 n         1 MOL     -0.659774
      8 C3          7.6950    1.4380   -1.6390 c3        1 MOL      0.410788
      9 C4          6.6540    0.3380   -1.4680 c         1 MOL      0.322807
     10 O2          6.1890    0.0140   -0.3800 o         1 MOL     -0.481365
     11 C5          8.6200    1.7180   -0.4030 c3        1 MOL     -0.215084
     12 C6          7.9680    2.7010    0.5830 c         1 MOL      0.750542
     13 O3          7.1040    2.2800    1.3950 o         1 MOL     -0.745053
     14 O4          8.2060    3.9380    0.4980 o         1 MOL     -0.745053
     15 H4          7.6650    3.0490   -3.0670 hn        1 MOL      0.301703
     16 H5          8.3840    1.0250   -2.3750 h1        1 MOL     -0.014459
     17 H6          9.5520    2.1080   -0.8130 hc        1 MOL      0.033233
     18 H7          8.8360    0.8030    0.1580 hc        1 MOL      0.033233
     19 N2          6.0870   -0.0240   -2.6080 n         1 MOL     -0.390583
     20 C7          5.0730   -1.0710   -2.8840 c3        1 MOL      0.129897
     21 C8          5.3380   -2.5070   -2.3950 c         1 MOL      0.190169
     22 O5          5.2860   -3.4940   -3.1990 o         1 MOL     -0.512384
     23 C9          3.6000   -0.6500   -2.5290 c3        1 MOL      0.206973
     24 C10         2.6490   -1.7640   -2.9360 c3        1 MOL      0.117297
     25 C11         3.1830    0.7300   -3.0390 c3        1 MOL     -0.234384
     26 C12         2.5250   -2.0040   -4.4540 c3        1 MOL     -0.106979
     27 H8          6.3280    0.5210   -3.4170 hn        1 MOL      0.219308
     28 H9          5.0320   -1.0900   -3.9640 h1        1 MOL      0.028003
     29 H10         3.6780   -0.6480   -1.4330 hc        1 MOL     -0.155507
     30 H11         1.6770   -1.4810   -2.5470 hc        1 MOL      0.016203
     31 H12         2.8720   -2.7450   -2.4940 hc        1 MOL      0.016203
     32 H13         3.4990    1.5360   -2.3740 hc        1 MOL      0.032523
     33 H14         3.6240    0.8460   -4.0350 hc        1 MOL      0.032523
     34 H15         2.1060    0.8810   -3.0480 hc        1 MOL      0.032523
     35 H16         3.3400   -2.6430   -4.7800 hc        1 MOL      0.000333
     36 H17         1.5900   -2.5140   -4.6640 hc        1 MOL      0.000333
     37 H18         2.5080   -1.0500   -4.9920 hc        1 MOL      0.000333
     38 N3          5.5960   -2.6640   -1.0770 n         1 MOL      0.227255
     39 C13         6.1490   -3.9070   -0.5710 c3        1 MOL     -0.021795
     40 C14         5.2540   -5.1790   -0.5110 c         1 MOL      0.531430
     41 O6          5.6180   -6.2730   -0.9400 o         1 MOL     -0.590966
     42 C15         6.8060   -3.7240    0.8150 c3        1 MOL     -0.258880
     43 C16         7.7270   -2.4860    0.9350 c         1 MOL      0.829397
     44 O7          8.6370   -2.3420    0.1030 o         1 MOL     -0.732094
     45 O8          7.6520   -1.7900    1.9920 o         1 MOL     -0.732094
     46 H19         5.8830   -1.8220   -0.6010 hn        1 MOL      0.080222
     47 H20         6.9580   -4.1000   -1.2740 h1        1 MOL      0.029302
     48 H21         7.3550   -4.6280    1.0820 hc        1 MOL      0.061995
     49 H22         6.0390   -3.6390    1.5850 hc        1 MOL      0.061995
     50 N4          3.9990   -5.0450   -0.2220 n         1 MOL     -0.465129
     51 C17         3.3730   -3.9950    0.5230 c3        1 MOL      0.206160
     52 C18         2.1770   -4.3220    1.3810 c         1 MOL      0.608147
     53 O9          1.6610   -5.4090    1.2260 o         1 MOL     -0.590512
     54 H23         3.3340   -5.7640   -0.5010 hn        1 MOL      0.289317
     55 H24         3.0570   -3.2380   -0.1910 h1        1 MOL     -0.032034
     56 H25         4.0760   -3.5050    1.2020 h1        1 MOL     -0.032034
     57 N5          1.7570   -3.4310    2.3380 n         1 MOL     -0.533024
     58 C19         2.1920   -2.0460    2.6700 c3        1 MOL      0.160152
     59 C20         2.3090   -1.0470    1.4560 c         1 MOL      0.469208
     60 O10         3.4020   -0.7580    0.9920 o         1 MOL     -0.688010
     61 C21         3.4010   -2.0520    3.6070 c3        1 MOL     -0.271450
     62 C22         3.1640   -2.6640    4.9800 c         1 MOL      0.717185
     63 O11         3.6190   -3.8160    5.2010 o         1 MOL     -0.732704
     64 O12         2.5760   -2.0000    5.8580 o         1 MOL     -0.732704
     65 H26         1.0460   -3.7670    2.9590 hn        1 MOL      0.306850
     66 H27         1.4010   -1.5770    3.2470 h1        1 MOL      0.034326
     67 H28         3.7230   -1.0330    3.8090 hc        1 MOL      0.058597
     68 H29         4.2130   -2.5420    3.0840 hc        1 MOL      0.058597
     69 N6          1.2510   -0.8020    0.7480 n         1 MOL     -0.121915
     70 C23        -0.1550   -1.1020    1.0970 c3        1 MOL     -0.295025
     71 C24        -0.7300   -2.2370    0.2780 c         1 MOL      0.429127
     72 O13        -0.0890   -2.7630   -0.5820 o         1 MOL     -0.483181
     73 H30         1.4760   -0.4710   -0.1780 hn        1 MOL      0.253234
     74 H31        -0.7250   -0.2090    0.8150 h1        1 MOL      0.143084
     75 H32        -0.2010   -1.2700    2.1670 h1        1 MOL      0.143084
     76 N7         -1.9340   -2.6640    0.6720 n         1 MOL     -0.384688
     77 C25        -2.6500   -3.7980    0.0930 c3        1 MOL      0.050990
     78 C26        -3.2910   -3.5400   -1.2880 c         1 MOL      0.319903
     79 O14        -3.9730   -4.4530   -1.8210 o         1 MOL     -0.504201
     80 C27        -3.6080   -4.3030    1.2030 c3        1 MOL     -0.126711
     81 C28        -4.8700   -3.4890    1.4580 c3        1 MOL     -0.127308
     82 C29        -5.9670   -4.3490    2.0060 c         1 MOL      0.731622
     83 N8         -5.8460   -4.9360    3.1320 n         1 MOL     -0.816082
     84 O15        -7.0160   -4.5890    1.3760 o         1 MOL     -0.584867
     85 H33        -2.3490   -2.1210    1.4120 hn        1 MOL      0.285835
     86 H34        -1.9980   -4.6600   -0.0110 h1        1 MOL      0.148142
     87 H35        -3.0080   -4.4220    2.0980 hc        1 MOL      0.061184
     88 H36        -4.0490   -5.2800    0.9890 hc        1 MOL      0.061184
     89 H37        -5.3040   -2.9960    0.5970 hc        1 MOL      0.040015
     90 H38        -4.6190   -2.6920    2.1700 hc        1 MOL      0.040015
     91 H39        -5.1230   -4.7090    3.8030 hn        1 MOL      0.375598
     92 H40        -6.5250   -5.6260    3.3940 hn        1 MOL      0.375598
     93 N9         -3.0410   -2.3650   -1.9380 n         1 MOL     -0.046248
     94 C30        -3.3600   -1.9700   -3.3330 c3        1 MOL     -0.269606
     95 C31        -4.6290   -1.2340   -3.3450 c         1 MOL      0.548563
     96 O16        -5.0630   -0.8830   -4.4730 o         1 MOL     -0.549394
     97 C32        -2.1790   -1.2200   -3.9390 c3        1 MOL      0.169594
     98 C33        -1.0530   -2.2060   -4.2690 c3        1 MOL     -0.134696
     99 C34        -1.6990   -0.1100   -2.9770 c3        1 MOL     -0.134696
    100 H41        -2.6210   -1.6210   -1.3970 hn        1 MOL      0.082746
    101 H42        -3.5110   -2.8340   -3.9850 h1        1 MOL      0.166124
    102 H43        -2.4120   -0.7670   -4.9070 hc        1 MOL      0.019330
    103 H44        -1.4950   -2.9260   -4.9610 hc        1 MOL      0.035702
    104 H45        -0.3490   -1.6310   -4.8680 hc        1 MOL      0.035702
    105 H46        -0.4790   -2.6640   -3.4590 hc        1 MOL      0.035702
    106 H47        -0.8690    0.3750   -3.5080 hc        1 MOL      0.035702
    107 H48        -2.4430    0.6080   -2.6260 hc        1 MOL      0.035702
    108 H49        -1.1990   -0.6560   -2.1800 hc        1 MOL      0.035702
    109 N10        -5.3420   -1.0430   -2.2480 n         1 MOL     -0.288958
    110 C35        -6.6980   -0.4480   -2.3080 c3        1 MOL     -0.055388
    111 C36        -6.8960    0.8900   -1.6330 c         1 MOL      0.549727
    112 O17        -7.9130    1.5820   -1.7940 o         1 MOL     -0.554984
    113 C37        -7.6670   -1.4660   -1.6670 c3        1 MOL     -0.291157
    114 C38        -7.7200   -2.8080   -2.4160 c         1 MOL      0.651389
    115 N11        -7.5520   -3.9120   -1.7290 n         1 MOL     -0.777521
    116 O18        -8.0500   -2.8790   -3.5720 o         1 MOL     -0.552447
    117 H50        -4.9560   -1.2620   -1.3340 hn        1 MOL      0.254352
    118 H51        -6.9950   -0.2910   -3.3400 h1        1 MOL      0.126823
    119 H52        -8.6750   -1.0700   -1.5210 hc        1 MOL      0.116139
    120 H53        -7.4190   -1.5240   -0.6030 hc        1 MOL      0.116139
    121 H54        -7.3780   -4.0020   -0.7370 hn        1 MOL      0.355138
    122 H55        -7.5410   -4.7740   -2.2610 hn        1 MOL      0.355138
    123 N12        -5.9350    1.3170   -0.7830 n         1 MOL     -0.488979
    124 C39        -5.9790    2.5060    0.1060 c3        1 MOL      0.344147
    125 C40        -4.5810    3.1450    0.2560 c         1 MOL      0.400201
    126 O19        -3.5730    2.5430   -0.0240 o         1 MOL     -0.496238
    127 C41        -6.3550    1.9580    1.5310 c3        1 MOL     -0.095229
    128 C42        -7.4530    0.9380    1.6380 ca        1 MOL      0.138601
    129 C43        -7.1690   -0.4090    1.9460 ca        1 MOL     -0.191953
    130 C44        -8.7360    1.4040    1.6850 ca        1 MOL     -0.191953
    131 C45        -8.3060   -1.2810    2.0860 ca        1 MOL     -0.260638
    132 C46        -9.8470    0.5520    1.8930 ca        1 MOL     -0.260638
    133 C47        -9.6340   -0.7950    2.0990 ca        1 MOL      0.365609
    134 O20       -10.7060   -1.5960    2.2120 oh        1 MOL     -0.524697
    135 H56        -5.0860    0.7730   -0.6770 hn        1 MOL      0.210425
    136 H57        -6.6290    3.3310   -0.1850 h1        1 MOL      0.006941
    137 H58        -6.5320    2.8560    2.1230 hc        1 MOL      0.022546
    138 H59        -5.4450    1.5790    2.0010 hc        1 MOL      0.022546
    139 H60        -6.2140   -0.9150    1.9920 ha        1 MOL      0.132802
    140 H61        -8.9460    2.4360    1.4290 ha        1 MOL      0.132802
    141 H62        -8.1150   -2.3220    2.2950 ha        1 MOL      0.131432
    142 H63       -10.8260    1.0060    1.8830 ha        1 MOL      0.131432
    143 H64       -11.5350   -1.1160    2.1010 ho        1 MOL      0.383216
    144 N13        -4.5290    4.3830    0.7750 n         1 MOL     -0.653063
    145 C48        -3.3440    5.0350    1.4230 c3        1 MOL      0.296859
    146 C49        -2.1300    5.2740    0.5150 c         1 MOL      0.430372
    147 O21        -1.4320    6.2180    0.7420 o         1 MOL     -0.534619
    148 C50        -2.8220    4.2430    2.6570 c3        1 MOL     -0.245991
    149 C51        -1.7950    5.0160    3.5020 c3        1 MOL     -0.431130
    150 C52        -1.6840    4.4250    4.9450 c         1 MOL      0.699950
    151 O22        -2.2970    5.0370    5.9130 o         1 MOL     -0.730232
    152 O23        -0.9110    3.4260    5.1440 o         1 MOL     -0.730232
    153 H65        -5.3850    4.7710    1.1310 hn        1 MOL      0.323074
    154 H66        -3.5360    6.0340    1.8050 h1        1 MOL      0.030183
    155 H67        -2.3300    3.2890    2.4750 hc        1 MOL      0.130514
    156 H68        -3.6650    4.0160    3.3110 hc        1 MOL      0.130514
    157 H69        -1.9350    6.0950    3.5160 hc        1 MOL      0.141778
    158 H70        -0.8320    4.8810    2.9940 hc        1 MOL      0.141778
    159 N14        -1.7910    4.5040   -0.5480 n         1 MOL     -0.592298
    160 C53        -0.6270    4.7460   -1.4680 c3        1 MOL     -0.000067
    161 C54        -0.8840    5.5680   -2.6850 c         1 MOL      0.427325
    162 O24        -0.1760    5.4190   -3.7000 o         1 MOL     -0.529133
    163 C55         0.0230    3.4070   -1.7710 c3        1 MOL     -0.001151
    164 C56         0.1220    2.3160   -0.6440 c3        1 MOL      0.368462
    165 C57         1.1820    2.5660    0.4920 c         1 MOL      0.510670
    166 O25         0.8000    3.3240    1.4080 o         1 MOL     -0.631039
    167 O26         2.2780    1.9290    0.5090 o         1 MOL     -0.631039
    168 H71        -2.2540    3.6160   -0.7210 hn        1 MOL      0.371507
    169 H72         0.0750    5.3810   -0.9450 h1        1 MOL      0.145750
    170 H73         1.0190    3.6090   -2.1750 hc        1 MOL     -0.010464
    171 H74        -0.6170    3.0250   -2.5590 hc        1 MOL     -0.010464
    172 H75         0.4140    1.4340   -1.2350 hc        1 MOL     -0.106637
    173 H76        -0.8440    2.0670   -0.2030 hc        1 MOL     -0.106637
    174 N15        -1.9990    6.3590   -2.7300 n         1 MOL     -0.215083
    175 C58        -2.4120    7.2010   -3.8060 c3        1 MOL     -0.117474
    176 H77        -1.5340    7.6130   -4.3020 h1        1 MOL      0.059678
    177 H78        -2.9930    6.6180   -4.5220 h1        1 MOL      0.059678
    178 H79        -3.0250    8.0140   -3.4170 h1        1 MOL      0.059678
    179 H80        -2.5220    6.3450   -1.8630 hn        1 MOL      0.237190
    180 Ca1         4.7050    1.5230    1.1950 Ca        1 MOL      1.824758
    181 O27         4.5930    4.2190    1.7850 oh        1 MOL     -0.904324
    182 H81         5.3000    4.8620    1.7660 ho        1 MOL      0.436840
    183 H82         3.8470    4.6880    2.1490 ho        1 MOL      0.436840
    184 O28         3.4520    1.9230    3.6160 oh        1 MOL     -0.904324
    185 H83         2.5060    1.7680    3.6270 ho        1 MOL      0.436840
    186 H84         3.6230    2.4460    4.3920 ho        1 MOL      0.436840
    187 O29         6.0620    0.0020    3.0160 oh        1 MOL     -0.904324
    188 H85         6.5700   -0.7470    2.7010 ho        1 MOL      0.436840
    189 H86         6.0980   -0.0650    3.9680 ho        1 MOL      0.436840
@<TRIPOS>BOND
     1    1    2 1   
     2    1    4 1   
     3    1    5 1   
     4    1    6 1   
     5    2    3 2   
     6    2    7 1   
     7    7    8 1   
     8    7   15 1   
     9    8    9 1   
    10    8   11 1   
    11    8   16 1   
    12    9   10 2   
    13    9   19 1   
    14   11   12 1   
    15   11   17 1   
    16   11   18 1   
    17   12   13 1   
    18   12   14 1   
    19   19   20 1   
    20   19   27 1   
    21   20   21 1   
    22   20   23 1   
    23   20   28 1   
    24   21   22 2   
    25   21   38 1   
    26   23   24 1   
    27   23   25 1   
    28   23   29 1   
    29   24   26 1   
    30   24   30 1   
    31   24   31 1   
    32   25   32 1   
    33   25   33 1   
    34   25   34 1   
    35   26   35 1   
    36   26   36 1   
    37   26   37 1   
    38   38   39 1   
    39   38   46 1   
    40   39   40 1   
    41   39   42 1   
    42   39   47 1   
    43   40   41 2   
    44   40   50 1   
    45   42   43 1   
    46   42   48 1   
    47   42   49 1   
    48   43   44 1   
    49   43   45 1   
    50   50   51 1   
    51   50   54 1   
    52   51   52 1   
    53   51   55 1   
    54   51   56 1   
    55   52   53 2   
    56   52   57 1   
    57   57   58 1   
    58   57   65 1   
    59   58   59 1   
    60   58   61 1   
    61   58   66 1   
    62   59   60 2   
    63   59   69 1   
    64   61   62 1   
    65   61   67 1   
    66   61   68 1   
    67   62   63 1   
    68   62   64 1   
    69   69   70 1   
    70   69   73 1   
    71   70   71 1   
    72   70   74 1   
    73   70   75 1   
    74   71   72 2   
    75   71   76 1   
    76   76   77 1   
    77   76   85 1   
    78   77   78 1   
    79   77   80 1   
    80   77   86 1   
    81   78   79 2   
    82   78   93 1   
    83   80   81 1   
    84   80   87 1   
    85   80   88 1   
    86   81   82 1   
    87   81   89 1   
    88   81   90 1   
    89   82   83 1   
    90   82   84 2   
    91   83   91 1   
    92   83   92 1   
    93   93   94 1   
    94   93  100 1   
    95   94   95 1   
    96   94   97 1   
    97   94  101 1   
    98   95   96 2   
    99   95  109 1   
   100   97   98 1   
   101   97   99 1   
   102   97  102 1   
   103   98  103 1   
   104   98  104 1   
   105   98  105 1   
   106   99  106 1   
   107   99  107 1   
   108   99  108 1   
   109  109  110 1   
   110  109  117 1   
   111  110  111 1   
   112  110  113 1   
   113  110  118 1   
   114  111  112 2   
   115  111  123 1   
   116  113  114 1   
   117  113  119 1   
   118  113  120 1   
   119  114  115 1   
   120  114  116 2   
   121  115  121 1   
   122  115  122 1   
   123  123  124 1   
   124  123  135 1   
   125  124  125 1   
   126  124  127 1   
   127  124  136 1   
   128  125  126 2   
   129  125  144 1   
   130  127  128 1   
   131  127  137 1   
   132  127  138 1   
   133  128  129 ar  
   134  128  130 ar  
   135  129  131 ar  
   136  129  139 1   
   137  130  132 ar  
   138  130  140 1   
   139  131  133 ar  
   140  131  141 1   
   141  132  133 ar  
   142  132  142 1   
   143  133  134 1   
   144  134  143 1   
   145  144  145 1   
   146  144  153 1   
   147  145  146 1   
   148  145  148 1   
   149  145  154 1   
   150  146  147 2   
   151  146  159 1   
   152  148  149 1   
   153  148  155 1   
   154  148  156 1   
   155  149  150 1   
   156  149  157 1   
   157  149  158 1   
   158  150  151 1   
   159  150  152 1   
   160  159  160 1   
   161  159  168 1   
   162  160  161 1   
   163  160  163 1   
   164  160  169 1   
   165  161  162 2   
   166  161  174 1   
   167  163  164 1   
   168  163  170 1   
   169  163  171 1   
   170  164  165 1   
   171  164  172 1   
   172  164  173 1   
   173  165  166 1   
   174  165  167 1   
   175  174  175 1   
   176  174  179 1   
   177  175  176 1   
   178  175  177 1   
   179  175  178 1   
   180  181  182 1   
   181  181  183 1   
   182  184  185 1   
   183  184  186 1   
   184  187  188 1   
   185  187  189 1   
@<TRIPOS>SUBSTRUCTURE
     1 MOL         1 TEMP              0 ****  ****    0 ROOT
