@<TRIPOS>MOLECULE
MOL
  198   191     1     0     0
SMALL
resp


@<TRIPOS>ATOM
      1 C1         -6.8100    7.5530    3.5720 c3        1 MOL     -0.336382
      2 C2         -7.1550    6.4730    2.4580 c         1 MOL      0.788443
      3 O1         -6.8120    5.2890    2.6220 o         1 MOL     -0.616741
      4 H1         -5.9280    7.2330    4.1270 hc        1 MOL      0.085598
      5 H2         -6.6110    8.5140    3.0980 hc        1 MOL      0.085598
      6 H3         -7.6530    7.6520    4.2550 hc        1 MOL      0.085598
      7 N1         -7.8110    6.9220    1.4200 n         1 MOL     -0.670917
      8 C3         -7.8000    6.3010    0.0590 c3        1 MOL      0.284640
      9 C4         -8.1890    4.8090   -0.0710 c         1 MOL      0.469520
     10 O2         -7.9880    4.1980   -1.1050 o         1 MOL     -0.584237
     11 C5         -6.4780    6.6500   -0.6820 c3        1 MOL     -0.115532
     12 C6         -6.1010    8.1860   -0.7440 c         1 MOL      0.597990
     13 O3         -4.8910    8.4540   -0.9930 o         1 MOL     -0.634669
     14 O4         -6.8460    9.0450   -0.2650 o         1 MOL     -0.634669
     15 H4         -8.2420    7.8420    1.4630 hn        1 MOL      0.316395
     16 H5         -8.5910    6.7780   -0.5090 h1        1 MOL      0.002048
     17 H6         -6.5520    6.2930   -1.7040 hc        1 MOL      0.035059
     18 H7         -5.6820    6.0410   -0.2520 hc        1 MOL      0.035059
     19 N2         -8.7380    4.1620    1.0280 n         1 MOL     -0.511765
     20 C7         -9.3130    2.8200    1.1720 c3        1 MOL      0.181650
     21 C8         -8.5810    1.5710    0.8390 c         1 MOL      0.495842
     22 O5         -9.1230    0.4930    1.0850 o         1 MOL     -0.572866
     23 C9        -10.7590    2.7300    0.6290 c3        1 MOL     -0.491656
     24 C10       -10.8180    2.6630   -0.8990 c3        1 MOL      0.298016
     25 C11       -12.1600    2.2990   -1.4950 c3        1 MOL     -0.054600
     26 C12       -12.0960    2.4400   -2.9990 c3        1 MOL     -0.069257
     27 N3        -11.3330    1.4220   -3.7470 n4        1 MOL     -0.322506
     28 H8         -8.6950    4.7400    1.8490 hn        1 MOL      0.258004
     29 H9         -9.4080    2.7170    2.2590 h1        1 MOL      0.123785
     30 H10       -11.2940    3.6050    0.9960 hc        1 MOL      0.133106
     31 H11       -11.1430    1.7610    0.9400 hc        1 MOL      0.133106
     32 H12       -10.0280    2.0270   -1.2970 hc        1 MOL     -0.017469
     33 H13       -10.6340    3.6590   -1.3010 hc        1 MOL     -0.017469
     34 H14       -12.9260    2.9150   -1.0310 hc        1 MOL      0.042203
     35 H15       -12.2520    1.2160   -1.3530 hc        1 MOL      0.042203
     36 H16       -11.6070    3.3890   -3.2300 hx        1 MOL      0.103958
     37 H17       -13.1080    2.4020   -3.3820 hx        1 MOL      0.103958
     38 H18       -11.3040    1.6230   -4.7360 hn        1 MOL      0.300934
     39 H19       -10.3980    1.4780   -3.3650 hn        1 MOL      0.300934
     40 H20       -11.6670    0.4910   -3.5780 hn        1 MOL      0.300934
     41 N4         -7.2860    1.6310    0.4780 n         1 MOL     -0.481449
     42 C13        -6.4040    0.5210    0.2110 c3        1 MOL      0.450227
     43 C14        -5.3940    0.1180    1.2660 c         1 MOL      0.291664
     44 O6         -4.6140    0.9760    1.6790 o         1 MOL     -0.520924
     45 C15        -5.7580    0.6180   -1.2150 c3        1 MOL     -0.383746
     46 C16        -4.9960   -0.6510   -1.7510 c         1 MOL      0.761013
     47 O7         -5.2310   -1.7520   -1.1840 o         1 MOL     -0.705786
     48 O8         -4.3250   -0.5620   -2.8170 o         1 MOL     -0.705786
     49 H21        -6.9340    2.5290    0.1850 hn        1 MOL      0.312800
     50 H22        -7.1510   -0.2530    0.0750 h1        1 MOL      0.001511
     51 H23        -5.0760    1.4620   -1.2740 hc        1 MOL      0.090619
     52 H24        -6.5730    0.8430   -1.9060 hc        1 MOL      0.090619
     53 N5         -5.3740   -1.0720    1.9220 n         1 MOL     -0.174666
     54 C17        -6.3610   -2.1290    1.8460 c3        1 MOL     -0.021263
     55 C18        -5.8360   -3.5350    1.8780 c         1 MOL      0.465265
     56 O9         -6.0920   -4.2450    2.8470 o         1 MOL     -0.581251
     57 H25        -4.7420   -1.1410    2.7100 hn        1 MOL      0.224511
     58 H26        -6.9560   -2.1300    0.9280 h1        1 MOL      0.044771
     59 H27        -6.8990   -2.0430    2.7830 h1        1 MOL      0.044771
     60 N6         -5.1770   -3.9920    0.8340 n         1 MOL      0.068470
     61 C19        -4.5090   -5.3460    0.5990 c3        1 MOL     -0.160001
     62 C20        -3.0670   -5.1620   -0.0260 c         1 MOL      0.422990
     63 O10        -2.8310   -4.2730   -0.8030 o         1 MOL     -0.543985
     64 C21        -5.5420   -6.2170   -0.1430 c3        1 MOL     -0.172345
     65 C22        -5.9130   -5.8590   -1.5350 c         1 MOL      0.647113
     66 O11        -5.4060   -4.8320   -2.0780 o         1 MOL     -0.689358
     67 O12        -6.7990   -6.5380   -2.1640 o         1 MOL     -0.689358
     68 H28        -5.0580   -3.3050    0.0940 hn        1 MOL     -0.047417
     69 H29        -4.3670   -5.7580    1.6020 h1        1 MOL      0.082776
     70 H30        -6.4740   -6.2210    0.4160 hc        1 MOL      0.074638
     71 H31        -5.2450   -7.2660   -0.2440 hc        1 MOL      0.074638
     72 N7         -2.1600   -6.1290    0.1220 n         1 MOL     -0.189411
     73 C23        -0.7430   -6.1250   -0.2610 c3        1 MOL     -0.242553
     74 C24         0.0970   -5.0640    0.4710 c         1 MOL      0.584987
     75 O13         1.2670   -5.3220    0.6850 o         1 MOL     -0.539312
     76 H32        -2.6170   -6.9300    0.5230 hn        1 MOL      0.234617
     77 H33        -0.6300   -6.0360   -1.3460 h1        1 MOL      0.117194
     78 H34        -0.2990   -7.0860   -0.0280 h1        1 MOL      0.117194
     79 N8         -0.5260   -4.0770    1.1440 n         1 MOL     -0.468393
     80 C25        -0.1780   -3.4900    2.4210 c3        1 MOL      0.041464
     81 C26         0.3050   -2.0320    2.2710 c         1 MOL      0.315100
     82 O14        -0.0220   -1.4630    1.2690 o         1 MOL     -0.417217
     83 C27        -1.4100   -3.6020    3.3630 c3        1 MOL      0.221168
     84 C28        -2.5670   -2.6290    3.0020 c3        1 MOL      0.024615
     85 O15        -2.1660   -4.8140    3.3490 oh        1 MOL     -0.589170
     86 H35        -1.4700   -3.8370    0.8570 hn        1 MOL      0.265998
     87 H36         0.6620   -4.0210    2.8640 h1        1 MOL      0.077769
     88 H37        -1.0500   -3.3520    4.3530 h1        1 MOL      0.003709
     89 H38        -1.5310   -5.5290    3.2620 ho        1 MOL      0.371597
     90 H39        -2.3270   -1.5750    3.1570 hc        1 MOL      0.011515
     91 H40        -2.9090   -2.6920    1.9650 hc        1 MOL      0.011515
     92 H41        -3.3140   -2.6860    3.8020 hc        1 MOL      0.011515
     93 N9          1.0460   -1.5070    3.2300 n         1 MOL     -0.188164
     94 C29         1.5790   -0.1160    3.1580 c3        1 MOL     -0.169699
     95 C30         2.5290    0.0410    1.9300 c         1 MOL      0.408286
     96 O16         2.5040    1.0400    1.2000 o         1 MOL     -0.477278
     97 C31         2.1810    0.2040    4.5790 c3        1 MOL      0.150152
     98 C32         1.2290    0.4820    5.7740 c3        1 MOL     -0.023514
     99 C33         2.9690    1.5400    4.5540 c3        1 MOL     -0.402870
    100 C34         0.5880   -0.6830    6.4500 c3        1 MOL     -0.206741
    101 H42         1.4540   -2.2090    3.8320 hn        1 MOL      0.200220
    102 H43         0.7520    0.5600    2.9460 h1        1 MOL      0.164180
    103 H44         2.9140   -0.5420    4.8890 hc        1 MOL      0.023011
    104 H45         0.4650    1.1740    5.4200 hc        1 MOL      0.050601
    105 H46         1.7350    1.0730    6.5310 hc        1 MOL      0.050601
    106 H47         2.3280    2.3370    4.1840 hc        1 MOL      0.112080
    107 H48         3.3240    1.7910    5.5530 hc        1 MOL      0.112080
    108 H49         3.8200    1.4190    3.8740 hc        1 MOL      0.112080
    109 H50         0.0090   -0.3920    7.3360 hc        1 MOL      0.046424
    110 H51        -0.0520   -1.1870    5.7260 hc        1 MOL      0.046424
    111 H52         1.4050   -1.3280    6.7690 hc        1 MOL      0.046424
    112 N10         3.3880   -0.9590    1.6410 n         1 MOL     -0.283962
    113 C35         4.4430   -1.0280    0.7190 c3        1 MOL     -0.104620
    114 C36         5.6360   -1.7060    1.3560 c         1 MOL      0.720761
    115 O17         5.3740   -2.3860    2.2680 o         1 MOL     -0.538694
    116 C37         3.9190   -1.8070   -0.5360 c3        1 MOL      0.326910
    117 C38         3.2630   -0.8300   -1.5400 c3        1 MOL     -0.478192
    118 O18         4.9810   -2.3570   -1.3050 oh        1 MOL     -0.632752
    119 H53         3.2310   -1.7780    2.2160 hn        1 MOL      0.207962
    120 H54         4.7810   -0.0340    0.4360 h1        1 MOL      0.107618
    121 H55         3.2680   -2.6240   -0.2250 h1        1 MOL      0.093342
    122 H56         5.4870   -1.6180   -1.6420 ho        1 MOL      0.399756
    123 H57         3.9920   -0.1570   -2.0010 hc        1 MOL      0.128232
    124 H58         2.7680   -1.3800   -2.3440 hc        1 MOL      0.128232
    125 H59         2.5680   -0.2030   -0.9750 hc        1 MOL      0.128232
    126 N11         6.9010   -1.4110    0.8870 n         1 MOL     -0.619017
    127 C39         8.1400   -1.8980    1.5280 c3        1 MOL     -0.053683
    128 C40         9.3160   -0.9570    1.3840 c         1 MOL      0.628842
    129 O19        10.2060   -0.8340    2.2240 o         1 MOL     -0.567230
    130 C41         8.5580   -3.3280    1.1080 c3        1 MOL      0.268982
    131 C42         9.8000   -3.8920    1.8950 c3        1 MOL     -0.442174
    132 O20         8.8880   -3.2510   -0.2930 oh        1 MOL     -0.599575
    133 H60         6.9360   -0.8610    0.0370 hn        1 MOL      0.254197
    134 H61         8.0290   -1.8640    2.6150 h1        1 MOL      0.119811
    135 H62         7.7310   -4.0300    1.1590 h1        1 MOL      0.063807
    136 H63         8.4030   -3.9650   -0.7190 ho        1 MOL      0.391570
    137 H64        10.0360   -4.9160    1.6220 hc        1 MOL      0.126818
    138 H65        10.6890   -3.3150    1.6200 hc        1 MOL      0.126818
    139 H66         9.5780   -3.8850    2.9550 hc        1 MOL      0.126818
    140 N12         9.4410   -0.3050    0.2160 n         1 MOL     -0.413436
    141 C43        10.4800    0.6180   -0.1730 c3        1 MOL     -0.025400
    142 C44         9.9110    1.4240   -1.3890 c         1 MOL      0.492896
    143 O21         9.2090    0.8720   -2.2490 o         1 MOL     -0.495410
    144 C45        11.7290   -0.1320   -0.6150 c3        1 MOL     -0.170591
    145 C46        13.0120    0.7020   -1.0410 c3        1 MOL     -0.025631
    146 C47        14.1450   -0.2380   -1.4950 c3        1 MOL     -0.017539
    147 C48        15.4580    0.5430   -1.7400 c3        1 MOL      0.079592
    148 N13        16.4950   -0.4350   -2.1740 n4        1 MOL     -0.208250
    149 H67         8.7780   -0.5300   -0.5140 hn        1 MOL      0.272066
    150 H68        10.7560    1.3090    0.6380 h1        1 MOL      0.111972
    151 H69        11.4660   -0.8220   -1.4190 hc        1 MOL      0.098405
    152 H70        12.1000   -0.8030    0.1710 hc        1 MOL      0.098405
    153 H71        13.3540    1.3330   -0.2260 hc        1 MOL      0.043530
    154 H72        12.7770    1.3310   -1.8920 hc        1 MOL      0.043530
    155 H73        13.9280   -0.8710   -2.3530 hc        1 MOL      0.018308
    156 H74        14.3500   -0.9450   -0.6960 hc        1 MOL      0.018308
    157 H75        15.6250    1.1700   -0.8640 hx        1 MOL      0.055472
    158 H76        15.2220    1.1860   -2.5930 hx        1 MOL      0.055472
    159 H77        16.1020   -1.0750   -2.8530 hn        1 MOL      0.215482
    160 H78        17.1960    0.0200   -2.7310 hn        1 MOL      0.215482
    161 H79        16.9500   -0.9100   -1.4080 hn        1 MOL      0.215482
    162 N14         9.9800    2.7390   -1.2910 n         1 MOL     -0.383648
    163 C49         9.1230    3.7090   -1.9430 c3        1 MOL      0.119644
    164 C50         7.6290    3.3900   -1.9880 c         1 MOL      0.332964
    165 O22         7.0070    3.3440   -3.0450 o         1 MOL     -0.505307
    166 C51         9.3780    5.0860   -1.2690 c3        1 MOL     -0.027665
    167 C52         8.6970    6.2830   -1.9260 c3        1 MOL     -0.211909
    168 C53         9.2350    7.6100   -1.3550 c         1 MOL      0.673158
    169 O23         9.6150    7.7820   -0.1610 o         1 MOL     -0.633126
    170 O24         9.3840    8.5480   -2.1820 o         1 MOL     -0.633126
    171 H80        10.6590    3.1350   -0.6430 hn        1 MOL      0.227438
    172 H81         9.5080    3.8240   -2.9500 h1        1 MOL      0.062905
    173 H82        10.4610    5.2720   -1.3310 hc        1 MOL      0.020216
    174 H83         9.1860    5.0690   -0.1980 hc        1 MOL      0.020216
    175 H84         7.6300    6.1470   -1.7090 hc        1 MOL      0.069295
    176 H85         8.7650    6.3040   -3.0140 hc        1 MOL      0.069295
    177 N15         6.8580    3.0670   -0.9050 n         1 MOL     -0.216475
    178 C54         7.0910    3.2910    0.4990 c3        1 MOL     -0.139051
    179 H86         8.0740    2.9020    0.7700 h1        1 MOL      0.072877
    180 H87         7.0530    4.3600    0.7080 h1        1 MOL      0.072877
    181 H88         6.3250    2.7780    1.0810 h1        1 MOL      0.072877
    182 H89         5.9650    2.6600   -1.1490 hn        1 MOL      0.247072
    183 Ca1        -3.9420   -3.0830   -3.0780 Ca        1 MOL      1.791356
    184 O25        -1.5710   -4.7620   -3.4850 oh        1 MOL     -0.847335
    185 H90        -1.4670   -5.7180   -3.5080 ho        1 MOL      0.418473
    186 H91        -0.6780   -4.4270   -3.4050 ho        1 MOL      0.418473
    187 O26        -4.4520   -5.0070   -4.8020 oh        1 MOL     -0.847335
    188 H92        -3.7370   -5.2720   -5.3730 ho        1 MOL      0.418473
    189 H93        -5.0860   -5.7160   -4.8680 ho        1 MOL      0.418473
    190 O27        -3.2640   -1.9550   -5.3710 oh        1 MOL     -0.847335
    191 H94        -3.5320   -1.8730   -6.2950 ho        1 MOL      0.418473
    192 H95        -2.3900   -1.5670   -5.3480 ho        1 MOL      0.418473
    193 O28        -1.5160   -1.6220   -2.6860 oh        1 MOL     -0.847335
    194 H96        -1.3120   -0.9550   -2.0320 ho        1 MOL      0.418473
    195 H97        -0.6640   -1.9940   -2.9170 ho        1 MOL      0.418473
    196 O29        -6.3470   -2.6960   -4.3150 oh        1 MOL     -0.847335
    197 H98        -7.1930   -2.2840   -4.4670 ho        1 MOL      0.418473
    198 H99        -6.3480   -3.4690   -4.8740 ho        1 MOL      0.418473
@<TRIPOS>BOND
     1    1    2 1   
     2    1    4 1   
     3    1    5 1   
     4    1    6 1   
     5    2    3 2   
     6    2    7 1   
     7    7    8 1   
     8    7   15 1   
     9    8    9 1   
    10    8   11 1   
    11    8   16 1   
    12    9   10 2   
    13    9   19 1   
    14   11   12 1   
    15   11   17 1   
    16   11   18 1   
    17   12   13 1   
    18   12   14 1   
    19   19   20 1   
    20   19   28 1   
    21   20   21 1   
    22   20   23 1   
    23   20   29 1   
    24   21   22 2   
    25   21   41 1   
    26   23   24 1   
    27   23   30 1   
    28   23   31 1   
    29   24   25 1   
    30   24   32 1   
    31   24   33 1   
    32   25   26 1   
    33   25   34 1   
    34   25   35 1   
    35   26   27 1   
    36   26   36 1   
    37   26   37 1   
    38   27   38 1   
    39   27   39 1   
    40   27   40 1   
    41   41   42 1   
    42   41   49 1   
    43   42   43 1   
    44   42   45 1   
    45   42   50 1   
    46   43   44 2   
    47   43   53 1   
    48   45   46 1   
    49   45   51 1   
    50   45   52 1   
    51   46   47 1   
    52   46   48 1   
    53   53   54 1   
    54   53   57 1   
    55   54   55 1   
    56   54   58 1   
    57   54   59 1   
    58   55   56 2   
    59   55   60 1   
    60   60   61 1   
    61   60   68 1   
    62   61   62 1   
    63   61   64 1   
    64   61   69 1   
    65   62   63 2   
    66   62   72 1   
    67   64   65 1   
    68   64   70 1   
    69   64   71 1   
    70   65   66 1   
    71   65   67 1   
    72   72   73 1   
    73   72   76 1   
    74   73   74 1   
    75   73   77 1   
    76   73   78 1   
    77   74   75 2   
    78   74   79 1   
    79   79   80 1   
    80   79   86 1   
    81   80   81 1   
    82   80   83 1   
    83   80   87 1   
    84   81   82 2   
    85   81   93 1   
    86   83   84 1   
    87   83   85 1   
    88   83   88 1   
    89   84   90 1   
    90   84   91 1   
    91   84   92 1   
    92   85   89 1   
    93   93   94 1   
    94   93  101 1   
    95   94   95 1   
    96   94   97 1   
    97   94  102 1   
    98   95   96 2   
    99   95  112 1   
   100   97   98 1   
   101   97   99 1   
   102   97  103 1   
   103   98  100 1   
   104   98  104 1   
   105   98  105 1   
   106   99  106 1   
   107   99  107 1   
   108   99  108 1   
   109  100  109 1   
   110  100  110 1   
   111  100  111 1   
   112  112  113 1   
   113  112  119 1   
   114  113  114 1   
   115  113  116 1   
   116  113  120 1   
   117  114  115 2   
   118  114  126 1   
   119  116  117 1   
   120  116  118 1   
   121  116  121 1   
   122  117  123 1   
   123  117  124 1   
   124  117  125 1   
   125  118  122 1   
   126  126  127 1   
   127  126  133 1   
   128  127  128 1   
   129  127  130 1   
   130  127  134 1   
   131  128  129 2   
   132  128  140 1   
   133  130  131 1   
   134  130  132 1   
   135  130  135 1   
   136  131  137 1   
   137  131  138 1   
   138  131  139 1   
   139  132  136 1   
   140  140  141 1   
   141  140  149 1   
   142  141  142 1   
   143  141  144 1   
   144  141  150 1   
   145  142  143 2   
   146  142  162 1   
   147  144  145 1   
   148  144  151 1   
   149  144  152 1   
   150  145  146 1   
   151  145  153 1   
   152  145  154 1   
   153  146  147 1   
   154  146  155 1   
   155  146  156 1   
   156  147  148 1   
   157  147  157 1   
   158  147  158 1   
   159  148  159 1   
   160  148  160 1   
   161  148  161 1   
   162  162  163 1   
   163  162  171 1   
   164  163  164 1   
   165  163  166 1   
   166  163  172 1   
   167  164  165 2   
   168  164  177 1   
   169  166  167 1   
   170  166  173 1   
   171  166  174 1   
   172  167  168 1   
   173  167  175 1   
   174  167  176 1   
   175  168  169 1   
   176  168  170 1   
   177  177  178 1   
   178  177  182 1   
   179  178  179 1   
   180  178  180 1   
   181  178  181 1   
   182  184  185 1   
   183  184  186 1   
   184  187  188 1   
   185  187  189 1   
   186  190  191 1   
   187  190  192 1   
   188  193  194 1   
   189  193  195 1   
   190  196  197 1   
   191  196  198 1   
@<TRIPOS>SUBSTRUCTURE
     1 MOL         1 TEMP              0 ****  ****    0 ROOT
