@<TRIPOS>MOLECULE
MOL
  192   187     1     0     0
SMALL
resp


@<TRIPOS>ATOM
      1 C1         -6.8560   -3.3690    4.4240 c3        1 MOL     -0.313375
      2 C2         -6.1640   -2.6610    3.2120 c         1 MOL      0.834604
      3 O1         -5.8910   -3.3740    2.2790 o         1 MOL     -0.599752
      4 H1         -7.0700   -4.4050    4.1640 hc        1 MOL      0.071181
      5 H2         -6.1930   -3.3410    5.2890 hc        1 MOL      0.071181
      6 H3         -7.7870   -2.8550    4.6620 hc        1 MOL      0.071181
      7 N1         -6.0360   -1.3290    3.1780 n         1 MOL     -0.719099
      8 C3         -5.5110   -0.5470    2.0840 c3        1 MOL      0.225847
      9 C4         -3.9900   -0.4930    1.8400 c         1 MOL      0.152767
     10 O2         -3.4780    0.2580    0.9550 o         1 MOL     -0.408740
     11 C5         -5.9490    1.0060    2.0800 c3        1 MOL     -0.010508
     12 C6         -6.6640    1.3570    3.4160 c         1 MOL      0.712625
     13 O3         -5.9160    1.7610    4.2860 o         1 MOL     -0.737574
     14 O4         -7.8980    1.2210    3.5880 o         1 MOL     -0.737574
     15 H4         -6.4600   -0.8050    3.9290 hn        1 MOL      0.349958
     16 H5         -5.9980   -0.9300    1.1810 h1        1 MOL      0.135076
     17 H6         -6.6300    1.1280    1.2350 hc        1 MOL     -0.070020
     18 H7         -5.1660    1.7360    1.8980 hc        1 MOL     -0.070020
     19 N2         -3.3180   -1.4030    2.5050 n         1 MOL     -0.068600
     20 C7         -1.8690   -1.6430    2.5180 c3        1 MOL      0.138644
     21 C8         -1.3470   -2.8400    1.6310 c         1 MOL      0.422196
     22 O5         -1.9300   -3.9290    1.6650 o         1 MOL     -0.485399
     23 C9         -1.4730   -2.0830    3.9680 c3        1 MOL     -0.254574
     24 C10        -1.4010   -0.9560    5.0490 c3        1 MOL      0.278471
     25 C11        -0.5150   -1.4660    6.2260 c3        1 MOL     -0.165984
     26 C12        -0.5060   -0.4870    7.3530 c3        1 MOL      0.170392
     27 N3          0.6470   -0.7860    8.2770 n4        1 MOL     -0.424414
     28 H8         -3.8530   -2.1700    2.8750 hn        1 MOL      0.130337
     29 H9         -1.4170   -0.6970    2.2160 h1        1 MOL      0.082500
     30 H10        -0.4400   -2.3840    3.8700 hc        1 MOL      0.051359
     31 H11        -2.1290   -2.8890    4.2870 hc        1 MOL      0.051359
     32 H12        -2.3850   -0.5940    5.3610 hc        1 MOL     -0.038479
     33 H13        -0.8900   -0.1100    4.5940 hc        1 MOL     -0.038479
     34 H14         0.5320   -1.5090    5.9090 hc        1 MOL      0.045144
     35 H15        -0.8250   -2.4480    6.5640 hc        1 MOL      0.045144
     36 H16        -1.4370   -0.6360    7.8940 hx        1 MOL      0.058121
     37 H17        -0.4790    0.5750    7.0800 hx        1 MOL      0.058121
     38 H18         0.5870   -1.7410    8.5960 hn        1 MOL      0.340162
     39 H19         1.5310   -0.7970    7.7880 hn        1 MOL      0.340162
     40 H20         0.6620   -0.0750    9.0040 hn        1 MOL      0.340162
     41 N4         -0.1900   -2.7680    0.9520 n         1 MOL     -0.276357
     42 C13         0.7660   -1.6890    0.7710 c3        1 MOL     -0.038138
     43 C14         1.2180   -0.9690    2.0870 c         1 MOL      0.588807
     44 O6          0.6630    0.0680    2.4650 o         1 MOL     -0.556255
     45 C15         0.2230   -0.7000   -0.3730 c3        1 MOL     -0.276410
     46 C16         0.1950   -1.3680   -1.7430 c         1 MOL      0.829924
     47 O7          0.6100   -2.5320   -1.9820 o         1 MOL     -0.755369
     48 O8         -0.2040   -0.6590   -2.7220 o         1 MOL     -0.755369
     49 H21         0.0500   -3.6160    0.4660 hn        1 MOL      0.169513
     50 H22         1.6100   -2.1030    0.2220 h1        1 MOL      0.001407
     51 H23         0.8090    0.2120   -0.5120 hc        1 MOL      0.110108
     52 H24        -0.7580   -0.3700   -0.0290 hc        1 MOL      0.110108
     53 N5          2.2900   -1.3520    2.6720 n         1 MOL     -0.366951
     54 C17         3.2850   -2.2880    2.1620 c3        1 MOL     -0.040469
     55 C18         4.4970   -2.3580    3.1060 c         1 MOL      0.486345
     56 O9          4.4770   -1.8790    4.2680 o         1 MOL     -0.540232
     57 H25         2.4450   -1.0270    3.6240 hn        1 MOL      0.254516
     58 H26         3.7040   -2.0240    1.1990 h1        1 MOL      0.101501
     59 H27         2.8520   -3.2880    2.0960 h1        1 MOL      0.101501
     60 N6          5.6400   -2.9460    2.6450 n         1 MOL     -0.472594
     61 C19         5.8610   -3.4340    1.2520 c3        1 MOL      0.272888
     62 C20         6.6000   -2.4930    0.2950 c         1 MOL      0.394706
     63 O10         7.3170   -1.6330    0.6660 o         1 MOL     -0.447739
     64 C21         6.5500   -4.8010    1.3680 c3        1 MOL     -0.201060
     65 C22         7.6940   -4.9430    2.3870 c         1 MOL      0.782274
     66 O11         8.2270   -3.9350    2.8700 o         1 MOL     -0.679259
     67 O12         8.0370   -6.0830    2.7610 o         1 MOL     -0.679259
     68 H28         6.4510   -2.8030    3.2240 hn        1 MOL      0.328712
     69 H29         4.9100   -3.5670    0.7340 h1        1 MOL     -0.085130
     70 H30         6.8480   -5.0970    0.3680 hc        1 MOL     -0.008720
     71 H31         5.8080   -5.4160    1.8700 hc        1 MOL     -0.008720
     72 N7          6.5990   -2.8240   -1.0090 n         1 MOL     -0.147792
     73 C23         7.3740   -2.1110   -2.0610 c3        1 MOL     -0.479691
     74 C24         6.9000   -0.6210   -2.3360 c         1 MOL      0.511997
     75 O13         7.7450    0.1660   -2.8230 o         1 MOL     -0.545738
     76 H32         5.9400   -3.5590   -1.2160 hn        1 MOL      0.171362
     77 H33         7.4890   -2.7800   -2.9080 h1        1 MOL      0.204121
     78 H34         8.3670   -1.9860   -1.6290 h1        1 MOL      0.204121
     79 N8          5.7120   -0.2750   -1.9750 n         1 MOL     -0.198990
     80 C25         5.1410    1.0480   -2.0430 c3        1 MOL      0.087965
     81 C26         5.0850    1.6370   -0.6480 c         1 MOL      0.288408
     82 O14         4.7350    1.0320    0.4070 o         1 MOL     -0.493128
     83 C27         3.7580    0.9970   -2.7130 c3        1 MOL      0.338805
     84 C28         3.8040    0.5900   -4.2020 c3        1 MOL     -0.037705
     85 O15         3.1510    2.3480   -2.7010 oh        1 MOL     -0.658065
     86 H35         5.1760   -0.9260   -1.4140 hn        1 MOL      0.118510
     87 H36         5.8720    1.6740   -2.5720 h1        1 MOL      0.052549
     88 H37         3.1000    0.3470   -2.1410 h1        1 MOL      0.037434
     89 H38         2.2090    2.1920   -2.6160 ho        1 MOL      0.429965
     90 H39         2.8400    0.5920   -4.7120 hc        1 MOL     -0.007279
     91 H40         4.5010    1.2410   -4.7150 hc        1 MOL     -0.007279
     92 H41         4.2250   -0.4170   -4.2240 hc        1 MOL     -0.007279
     93 N9          5.5260    2.9040   -0.5520 n         1 MOL     -0.088435
     94 C29         5.5030    3.8380    0.6250 c3        1 MOL     -0.268257
     95 C30         4.1780    4.5630    0.9040 c         1 MOL      0.523991
     96 O16         4.0510    5.3280    1.8470 o         1 MOL     -0.548925
     97 C31         6.7310    4.8010    0.5240 c3        1 MOL      0.085282
     98 C32         6.9350    5.6530   -0.8990 c3        1 MOL     -0.172810
     99 C33         8.0420    3.9680    0.6670 c3        1 MOL     -0.088069
    100 C34         5.9460    6.8120   -1.0610 c3        1 MOL      0.045610
    101 H42         5.9950    3.2030   -1.3960 hn        1 MOL      0.239612
    102 H43         5.6410    3.1680    1.4730 h1        1 MOL      0.177941
    103 H44         6.8040    5.4370    1.4010 hc        1 MOL      0.070486
    104 H45         6.9440    4.9210   -1.7060 hc        1 MOL      0.043074
    105 H46         7.8430    6.2720   -0.8480 hc        1 MOL      0.043074
    106 H47         7.9710    3.1690    1.3950 hc        1 MOL      0.024575
    107 H48         8.3160    3.4950   -0.2820 hc        1 MOL      0.024575
    108 H49         8.8740    4.5950    0.9950 hc        1 MOL      0.024575
    109 H50         4.9150    6.4560   -1.1430 hc        1 MOL     -0.001942
    110 H51         5.9970    7.4660   -0.1970 hc        1 MOL     -0.001942
    111 H52         6.1300    7.3620   -1.9770 hc        1 MOL     -0.001942
    112 N10         3.1780    4.2920    0.0850 n         1 MOL     -0.232277
    113 C35         1.7060    4.8390    0.2620 c3        1 MOL     -0.079645
    114 C36         0.6340    3.7220    0.1510 c         1 MOL      0.557243
    115 O17         0.8270    2.5660   -0.2140 o         1 MOL     -0.522732
    116 C37         1.4240    6.0220   -0.6970 c3        1 MOL      0.513809
    117 C38         1.5320    5.7230   -2.2000 c3        1 MOL     -0.406062
    118 O18         2.2970    7.1500   -0.4900 oh        1 MOL     -0.704551
    119 H53         3.4480    3.7800   -0.7400 hn        1 MOL      0.112488
    120 H54         1.6480    5.1220    1.3090 h1        1 MOL      0.112710
    121 H55         0.3960    6.3500   -0.5390 h1        1 MOL     -0.010580
    122 H56         2.7690    7.4250   -1.2650 ho        1 MOL      0.405780
    123 H57         2.4560    6.1700   -2.5730 hc        1 MOL      0.100111
    124 H58         1.5540    4.6380   -2.3130 hc        1 MOL      0.100111
    125 H59         0.6920    6.2840   -2.6020 hc        1 MOL      0.100111
    126 N11        -0.6150    4.1120    0.4300 n         1 MOL     -0.498364
    127 C39        -1.8510    3.2620    0.2950 c3        1 MOL      0.121999
    128 C40        -2.2230    2.9770   -1.1490 c         1 MOL      0.557898
    129 O19        -1.8300    3.8140   -2.0060 o         1 MOL     -0.568945
    130 C41        -3.0080    3.9670    1.0030 c3        1 MOL      0.196036
    131 C42        -3.3670    5.2850    0.3280 c3        1 MOL      0.001564
    132 O20        -2.6430    4.4060    2.2720 oh        1 MOL     -0.562777
    133 H60        -0.6740    5.0000    0.9190 hn        1 MOL      0.243815
    134 H61        -1.6610    2.3080    0.7990 h1        1 MOL      0.069149
    135 H62        -3.8790    3.3150    1.0910 h1        1 MOL      0.058672
    136 H63        -2.2260    3.6470    2.6760 ho        1 MOL      0.376231
    137 H64        -3.7490    5.2170   -0.6940 hc        1 MOL      0.010588
    138 H65        -4.1160    5.9260    0.8050 hc        1 MOL      0.010588
    139 H66        -2.5170    5.9480    0.1760 hc        1 MOL      0.010588
    140 N12        -3.2110    2.0930   -1.3030 n         1 MOL     -0.377702
    141 C43        -3.9670    1.9170   -2.5180 c3        1 MOL      0.064697
    142 C44        -4.3030    0.4460   -2.9110 c         1 MOL      0.481713
    143 O21        -5.0190    0.2120   -3.9180 o         1 MOL     -0.587372
    144 C45        -5.1080    2.8720   -2.6500 c3        1 MOL     -0.192454
    145 C46        -6.2050    2.5810   -1.6160 c3        1 MOL     -0.055121
    146 C47        -7.1430    3.8340   -1.6310 c3        1 MOL     -0.204286
    147 C48        -8.3390    3.5980   -0.7300 c3        1 MOL      0.189657
    148 N13        -9.4320    4.5760   -1.1210 n4        1 MOL     -0.373285
    149 H67        -3.3810    1.5220   -0.4890 hn        1 MOL      0.039967
    150 H68        -3.3610    2.1550   -3.4000 h1        1 MOL      0.105879
    151 H69        -5.4960    2.7820   -3.6670 hc        1 MOL      0.080912
    152 H70        -4.7140    3.8890   -2.5830 hc        1 MOL      0.080912
    153 H71        -5.6670    2.3930   -0.6900 hc        1 MOL      0.106242
    154 H72        -6.7510    1.6830   -1.9020 hc        1 MOL      0.106242
    155 H73        -7.4430    3.7690   -2.6720 hc        1 MOL      0.061813
    156 H74        -6.6170    4.7660   -1.3920 hc        1 MOL      0.061813
    157 H75        -8.1410    3.5470    0.3380 hx        1 MOL      0.058521
    158 H76        -8.6040    2.5950   -1.0690 hx        1 MOL      0.058521
    159 H77        -9.0680    5.4940   -0.8950 hn        1 MOL      0.319357
    160 H78        -9.5970    4.6180   -2.1170 hn        1 MOL      0.319357
    161 H79       -10.2850    4.5060   -0.5830 hn        1 MOL      0.319357
    162 N14        -3.8480   -0.4950   -2.1060 n         1 MOL     -0.323422
    163 C49        -4.0810   -1.9570   -2.2040 c3        1 MOL      0.029932
    164 C50        -5.5750   -2.3160   -2.2990 c         1 MOL      0.515616
    165 O22        -6.2750   -1.8060   -1.3940 o         1 MOL     -0.562402
    166 C51        -3.3050   -2.7240   -1.1290 c3        1 MOL      0.037187
    167 C52        -3.5610   -4.2390   -1.2610 c3        1 MOL     -0.197303
    168 C53        -3.1580   -4.6690   -2.7000 c         1 MOL      0.434810
    169 O23        -1.9850   -4.3620   -3.0530 o         1 MOL     -0.651029
    170 O24        -3.9540   -5.0790   -3.5360 o         1 MOL     -0.651029
    171 H80        -3.1690   -0.2050   -1.4150 hn        1 MOL      0.332177
    172 H81        -3.7320   -2.2800   -3.1910 h1        1 MOL      0.056675
    173 H82        -3.6800   -2.4960   -0.1320 hc        1 MOL     -0.045857
    174 H83        -2.2610   -2.3940   -1.1060 hc        1 MOL     -0.045857
    175 H84        -4.6130   -4.5080   -1.1280 hc        1 MOL      0.106528
    176 H85        -2.9360   -4.7790   -0.5500 hc        1 MOL      0.106528
    177 N15        -5.9560   -3.1180   -3.3030 n         1 MOL     -0.339269
    178 C54        -7.3710   -3.3520   -3.6520 c3        1 MOL      0.014658
    179 H86        -7.7080   -4.2840   -3.1980 h1        1 MOL      0.036722
    180 H87        -7.9790   -2.5270   -3.2810 h1        1 MOL      0.036722
    181 H88        -7.4710   -3.4190   -4.7360 h1        1 MOL      0.036722
    182 H89        -5.3180   -3.5520   -3.9520 hn        1 MOL      0.364214
    183 Ca1         0.4010   -4.5250   -3.5820 Ca        1 MOL      1.657538
    184 O25         2.5710   -3.0790   -4.5220 oh        1 MOL     -0.882748
    185 H90         2.5480   -2.8510   -5.4510 ho        1 MOL      0.431490
    186 H91         3.4940   -3.1130   -4.3010 ho        1 MOL      0.431490
    187 O26        -0.4910   -2.2500   -4.9270 oh        1 MOL     -0.882748
    188 H92        -0.4140   -1.6550   -5.6780 ho        1 MOL      0.431490
    189 H93        -0.5610   -1.6790   -4.1750 ho        1 MOL      0.431490
    190 O27         0.9110   -4.7600   -6.3490 oh        1 MOL     -0.882748
    191 H94         1.0220   -5.4360   -7.0180 ho        1 MOL      0.431490
    192 H95         1.3250   -3.9900   -6.7220 ho        1 MOL      0.431490
@<TRIPOS>BOND
     1    1    2 1   
     2    1    4 1   
     3    1    5 1   
     4    1    6 1   
     5    2    3 2   
     6    2    7 1   
     7    7    8 1   
     8    7   15 1   
     9    8    9 1   
    10    8   11 1   
    11    8   16 1   
    12    9   10 2   
    13    9   19 1   
    14   11   12 1   
    15   11   17 1   
    16   11   18 1   
    17   12   13 1   
    18   12   14 1   
    19   19   20 1   
    20   19   28 1   
    21   20   21 1   
    22   20   23 1   
    23   20   29 1   
    24   21   22 2   
    25   21   41 1   
    26   23   24 1   
    27   23   30 1   
    28   23   31 1   
    29   24   25 1   
    30   24   32 1   
    31   24   33 1   
    32   25   26 1   
    33   25   34 1   
    34   25   35 1   
    35   26   27 1   
    36   26   36 1   
    37   26   37 1   
    38   27   38 1   
    39   27   39 1   
    40   27   40 1   
    41   41   42 1   
    42   41   49 1   
    43   42   43 1   
    44   42   45 1   
    45   42   50 1   
    46   43   44 2   
    47   43   53 1   
    48   45   46 1   
    49   45   51 1   
    50   45   52 1   
    51   46   47 1   
    52   46   48 1   
    53   53   54 1   
    54   53   57 1   
    55   54   55 1   
    56   54   58 1   
    57   54   59 1   
    58   55   56 2   
    59   55   60 1   
    60   60   61 1   
    61   60   68 1   
    62   61   62 1   
    63   61   64 1   
    64   61   69 1   
    65   62   63 2   
    66   62   72 1   
    67   64   65 1   
    68   64   70 1   
    69   64   71 1   
    70   65   66 1   
    71   65   67 1   
    72   72   73 1   
    73   72   76 1   
    74   73   74 1   
    75   73   77 1   
    76   73   78 1   
    77   74   75 2   
    78   74   79 1   
    79   79   80 1   
    80   79   86 1   
    81   80   81 1   
    82   80   83 1   
    83   80   87 1   
    84   81   82 2   
    85   81   93 1   
    86   83   84 1   
    87   83   85 1   
    88   83   88 1   
    89   84   90 1   
    90   84   91 1   
    91   84   92 1   
    92   85   89 1   
    93   93   94 1   
    94   93  101 1   
    95   94   95 1   
    96   94   97 1   
    97   94  102 1   
    98   95   96 2   
    99   95  112 1   
   100   97   98 1   
   101   97   99 1   
   102   97  103 1   
   103   98  100 1   
   104   98  104 1   
   105   98  105 1   
   106   99  106 1   
   107   99  107 1   
   108   99  108 1   
   109  100  109 1   
   110  100  110 1   
   111  100  111 1   
   112  112  113 1   
   113  112  119 1   
   114  113  114 1   
   115  113  116 1   
   116  113  120 1   
   117  114  115 2   
   118  114  126 1   
   119  116  117 1   
   120  116  118 1   
   121  116  121 1   
   122  117  123 1   
   123  117  124 1   
   124  117  125 1   
   125  118  122 1   
   126  126  127 1   
   127  126  133 1   
   128  127  128 1   
   129  127  130 1   
   130  127  134 1   
   131  128  129 2   
   132  128  140 1   
   133  130  131 1   
   134  130  132 1   
   135  130  135 1   
   136  131  137 1   
   137  131  138 1   
   138  131  139 1   
   139  132  136 1   
   140  140  141 1   
   141  140  149 1   
   142  141  142 1   
   143  141  144 1   
   144  141  150 1   
   145  142  143 2   
   146  142  162 1   
   147  144  145 1   
   148  144  151 1   
   149  144  152 1   
   150  145  146 1   
   151  145  153 1   
   152  145  154 1   
   153  146  147 1   
   154  146  155 1   
   155  146  156 1   
   156  147  148 1   
   157  147  157 1   
   158  147  158 1   
   159  148  159 1   
   160  148  160 1   
   161  148  161 1   
   162  162  163 1   
   163  162  171 1   
   164  163  164 1   
   165  163  166 1   
   166  163  172 1   
   167  164  165 2   
   168  164  177 1   
   169  166  167 1   
   170  166  173 1   
   171  166  174 1   
   172  167  168 1   
   173  167  175 1   
   174  167  176 1   
   175  168  169 1   
   176  168  170 1   
   177  177  178 1   
   178  177  182 1   
   179  178  179 1   
   180  178  180 1   
   181  178  181 1   
   182  184  185 1   
   183  184  186 1   
   184  187  188 1   
   185  187  189 1   
   186  190  191 1   
   187  190  192 1   
@<TRIPOS>SUBSTRUCTURE
     1 MOL         1 TEMP              0 ****  ****    0 ROOT
