@<TRIPOS>MOLECULE
MOL
  195   189     1     0     0
SMALL
resp


@<TRIPOS>ATOM
      1 C1         -5.4420   -2.7430    3.2530 c3        1 MOL     -0.276889
      2 C2         -4.5430   -2.8580    2.0140 c         1 MOL      0.608972
      3 O1         -3.8680   -1.8680    1.6230 o         1 MOL     -0.486994
      4 H1         -4.9840   -2.0660    3.9730 hc        1 MOL      0.061610
      5 H2         -6.4180   -2.3550    2.9600 hc        1 MOL      0.061610
      6 H3         -5.5630   -3.7270    3.7070 hc        1 MOL      0.061610
      7 N1         -4.4730   -4.1110    1.4430 n         1 MOL     -0.648712
      8 C3         -3.8040   -4.4990    0.1560 c3        1 MOL      0.087386
      9 C4         -2.2800   -4.1950    0.0250 c         1 MOL      0.693624
     10 O2         -1.8070   -3.8340   -1.0110 o         1 MOL     -0.550006
     11 C5         -4.6180   -3.9850   -1.0780 c3        1 MOL     -0.276051
     12 C6         -6.0990   -4.1860   -1.0310 c         1 MOL      0.715797
     13 O3         -6.5420   -5.3560   -1.0510 o         1 MOL     -0.691331
     14 O4         -6.9110   -3.1830   -0.8710 o         1 MOL     -0.691331
     15 H4         -4.9050   -4.8130    2.0370 hn        1 MOL      0.341206
     16 H5         -3.8060   -5.5800    0.0110 h1        1 MOL      0.073413
     17 H6         -4.2650   -4.3160   -2.0520 hc        1 MOL      0.107914
     18 H7         -4.3660   -2.9330   -1.1960 hc        1 MOL      0.107914
     19 N2         -1.4890   -4.3130    1.1170 n         1 MOL     -0.659470
     20 C7         -0.1220   -3.9880    1.1710 c3        1 MOL     -0.021484
     21 C8          0.7240   -5.0810    0.3830 c         1 MOL      0.618854
     22 O5          0.3790   -6.1890    0.2940 o         1 MOL     -0.583429
     23 C9          0.3610   -3.7540    2.6250 c3        1 MOL      0.307119
     24 C10         0.5190   -5.1180    3.2950 c3        1 MOL     -0.176657
     25 C11        -0.4890   -2.8100    3.4220 c3        1 MOL     -0.221596
     26 C12         1.3000   -4.9240    4.6110 c3        1 MOL     -0.063615
     27 H8         -1.9160   -4.7600    1.9190 hn        1 MOL      0.313100
     28 H9         -0.0050   -3.0400    0.6450 h1        1 MOL      0.157985
     29 H10         1.3360   -3.2680    2.5630 hc        1 MOL      0.135350
     30 H11         1.2340   -5.6280    2.6460 hc        1 MOL      0.063368
     31 H12        -0.3570   -5.7680    3.3220 hc        1 MOL      0.063368
     32 H13        -1.3870   -3.3700    3.7020 hc        1 MOL      0.018836
     33 H14         0.1600   -2.4250    4.2120 hc        1 MOL      0.018836
     34 H15        -0.6820   -1.9350    2.8010 hc        1 MOL      0.018836
     35 H16         2.2410   -4.3720    4.5090 hc        1 MOL      0.004564
     36 H17         0.6850   -4.3930    5.3330 hc        1 MOL      0.004564
     37 H18         1.5100   -5.8660    5.1150 hc        1 MOL      0.004564
     38 N3          1.8960   -4.7470   -0.1260 n         1 MOL     -0.626781
     39 C13         2.5840   -3.4860   -0.1010 c3        1 MOL      0.001285
     40 C14         2.8810   -2.9070   -1.4720 c         1 MOL      0.341995
     41 O6          3.2860   -1.6990   -1.5160 o         1 MOL     -0.465442
     42 C15         3.8700   -3.5850    0.7130 c3        1 MOL     -0.010326
     43 C16         4.8640   -4.7740    0.2850 c         1 MOL      0.592728
     44 O7          5.4330   -4.7220   -0.8430 o         1 MOL     -0.675252
     45 O8          4.9200   -5.7780    1.0050 o         1 MOL     -0.675252
     46 H19         2.3500   -5.5050   -0.6280 hn        1 MOL      0.376608
     47 H20         1.9200   -2.7420    0.3400 h1        1 MOL      0.009515
     48 H21         3.5750   -3.6660    1.7550 hc        1 MOL     -0.017487
     49 H22         4.3510   -2.6100    0.7040 hc        1 MOL     -0.017487
     50 N4          2.8580   -3.6600   -2.5360 n         1 MOL     -0.114919
     51 C17         3.2390   -3.3450   -3.8900 c3        1 MOL     -0.323891
     52 C18         4.7580   -3.0990   -4.0860 c         1 MOL      0.684934
     53 O9          5.4790   -3.9720   -4.5960 o         1 MOL     -0.596640
     54 H23         2.5770   -4.6180   -2.4340 hn        1 MOL      0.249968
     55 H24         2.7430   -2.3950   -4.1100 h1        1 MOL      0.111984
     56 H25         2.9540   -4.1650   -4.5420 h1        1 MOL      0.111984
     57 N5          5.1980   -1.9580   -3.5850 n         1 MOL     -0.532194
     58 C19         6.5920   -1.5250   -3.5670 c3        1 MOL      0.193833
     59 C20         7.3610   -1.6990   -2.2400 c         1 MOL      0.356248
     60 O10         8.5820   -1.6480   -2.2190 o         1 MOL     -0.574867
     61 C21         6.7050   -0.1050   -4.0810 c3        1 MOL     -0.392388
     62 C22         5.6030    0.7620   -3.4200 c         1 MOL      0.745044
     63 O11         5.6890    1.1980   -2.2630 o         1 MOL     -0.694963
     64 O12         4.5200    1.0150   -4.1310 o         1 MOL     -0.694963
     65 H26         4.5450   -1.3160   -3.1510 hn        1 MOL      0.314411
     66 H27         7.1070   -2.1350   -4.3150 h1        1 MOL      0.069804
     67 H28         6.6290   -0.0830   -5.1660 hc        1 MOL      0.074614
     68 H29         7.6570    0.3510   -3.8000 hc        1 MOL      0.074614
     69 N6          6.6650   -1.8330   -1.1040 n         1 MOL      0.122290
     70 C23         7.3450   -1.7630    0.2300 c3        1 MOL     -0.288076
     71 C24         7.8400   -0.3990    0.8000 c         1 MOL      0.632965
     72 O13         8.5900   -0.3220    1.7550 o         1 MOL     -0.600521
     73 H30         5.7090   -2.1610   -1.0670 hn        1 MOL      0.097305
     74 H31         8.1830   -2.4450    0.1460 h1        1 MOL      0.102522
     75 H32         6.6390   -2.1060    1.0010 h1        1 MOL      0.102522
     76 N7          7.5690    0.6540    0.0490 n         1 MOL     -0.193035
     77 C25         8.0750    2.0590    0.2290 c3        1 MOL     -0.018154
     78 C26         7.4270    2.7670    1.4260 c         1 MOL      0.375385
     79 O14         7.9580    3.7850    1.9240 o         1 MOL     -0.542439
     80 C27         9.6460    2.1990    0.1930 c3        1 MOL      0.120879
     81 C28        10.0850    1.6760   -1.1720 c3        1 MOL     -0.180193
     82 C29        11.6360    1.8680   -1.4740 c         1 MOL      0.613380
     83 N8         12.1600    1.0180   -2.3300 n         1 MOL     -0.745495
     84 O15        12.3980    2.7000   -0.9430 o         1 MOL     -0.589864
     85 H33         6.8500    0.5470   -0.6570 hn        1 MOL      0.112696
     86 H34         7.7110    2.6640   -0.6160 h1        1 MOL      0.142864
     87 H35        10.2220    1.8370    1.0330 hc        1 MOL      0.002919
     88 H36         9.8620    3.2590    0.0980 hc        1 MOL      0.002919
     89 H37         9.4770    2.1450   -1.9390 hc        1 MOL      0.051855
     90 H38         9.9430    0.6010   -1.0340 hc        1 MOL      0.051855
     91 H39        11.5670    0.3180   -2.7370 hn        1 MOL      0.342239
     92 H40        13.1330    1.2080   -2.5460 hn        1 MOL      0.342239
     93 N9          6.4240    2.1600    2.0110 n         1 MOL     -0.313673
     94 C30         5.7540    2.5610    3.3330 c3        1 MOL     -0.066801
     95 C31         4.2170    2.5710    3.1810 c         1 MOL      0.540202
     96 O16         3.5670    3.0230    4.1170 o         1 MOL     -0.570301
     97 C32         6.2020    1.6310    4.4910 c3        1 MOL      0.334303
     98 C33         5.7890    0.2390    4.2250 c3        1 MOL     -0.338206
     99 C34         7.7010    1.6660    4.6280 c3        1 MOL     -0.338206
    100 H41         6.1060    1.2860    1.6260 hn        1 MOL      0.263269
    101 H42         6.0850    3.5320    3.6960 h1        1 MOL      0.104870
    102 H43         5.7320    1.9780    5.4140 hc        1 MOL     -0.049796
    103 H44         6.2340   -0.2190    3.3510 hc        1 MOL      0.077174
    104 H45         6.1650   -0.3220    5.0820 hc        1 MOL      0.077174
    105 H46         4.6970    0.1690    4.1680 hc        1 MOL      0.077174
    106 H47         8.2910    1.1650    3.8590 hc        1 MOL      0.077174
    107 H48         7.9680    2.7210    4.7570 hc        1 MOL      0.077174
    108 H49         7.9670    1.1410    5.5380 hc        1 MOL      0.077174
    109 N10         3.5760    2.0640    2.0680 n         1 MOL     -0.554370
    110 C35         2.1050    1.9520    1.8250 c3        1 MOL      0.346195
    111 C36         1.7470    2.7780    0.5640 c         1 MOL      0.464805
    112 O17         2.6800    3.1940   -0.1810 o         1 MOL     -0.490145
    113 C37         1.8610    0.4750    1.6370 c3        1 MOL     -0.041177
    114 C38         2.4180   -0.4320    2.7320 c         1 MOL      0.172190
    115 N11         1.9710   -0.2840    3.9390 n         1 MOL     -0.560494
    116 O18         3.2180   -1.2750    2.4400 o         1 MOL     -0.361559
    117 H50         4.1140    1.8160    1.2510 hn        1 MOL      0.289237
    118 H51         1.5470    2.3210    2.6870 h1        1 MOL     -0.011544
    119 H52         2.2260    0.1620    0.6600 hc        1 MOL      0.064454
    120 H53         0.7870    0.3420    1.5790 hc        1 MOL      0.064454
    121 H54         1.2750    0.4310    4.1400 hn        1 MOL      0.325646
    122 H55         2.2860   -0.8670    4.6930 hn        1 MOL      0.325646
    123 N12         0.4700    2.9460    0.3020 n         1 MOL     -0.543673
    124 C39        -0.1220    3.6630   -0.8750 c3        1 MOL      0.244381
    125 C40        -1.4540    4.3650   -0.4230 c         1 MOL      0.633907
    126 O19        -1.9430    4.0910    0.6690 o         1 MOL     -0.603865
    127 C41        -0.3450    2.7880   -2.1230 c3        1 MOL     -0.153777
    128 C42        -1.5980    1.8770   -2.0410 ca        1 MOL     -0.021909
    129 C43        -1.7170    0.9450   -0.9870 ca        1 MOL     -0.090024
    130 C44        -2.4900    1.8820   -3.1340 ca        1 MOL     -0.090024
    131 C45        -2.8190    0.0970   -0.9770 ca        1 MOL     -0.358137
    132 C46        -3.5220    0.9480   -3.1790 ca        1 MOL     -0.358137
    133 C47        -3.7070    0.0260   -2.0810 ca        1 MOL      0.532288
    134 O20        -4.7860   -0.7550   -1.9830 oh        1 MOL     -0.594888
    135 H56        -0.2030    2.6120    0.9790 hn        1 MOL      0.253960
    136 H57         0.5980    4.4110   -1.1910 h1        1 MOL      0.031175
    137 H58         0.6150    2.3050   -2.3110 hc        1 MOL      0.085646
    138 H59        -0.4810    3.4880   -2.9500 hc        1 MOL      0.085646
    139 H60        -0.8830    0.7480   -0.3370 ha        1 MOL      0.121816
    140 H61        -2.2960    2.4950   -3.9990 ha        1 MOL      0.121816
    141 H62        -2.9790   -0.7330   -0.2970 ha        1 MOL      0.164101
    142 H63        -4.2190    0.9480   -3.9950 ha        1 MOL      0.164101
    143 H64        -4.8740   -1.0600   -1.0820 ho        1 MOL      0.358354
    144 N13        -2.0890    5.1900   -1.2070 n         1 MOL     -0.867446
    145 C48        -3.4060    5.8200   -0.9330 c3        1 MOL      0.813177
    146 C49        -4.5070    5.3110   -1.9030 c         1 MOL      0.345113
    147 O21        -4.7940    6.0000   -2.8750 o         1 MOL     -0.523181
    148 C50        -3.2240    7.3590   -0.8800 c3        1 MOL     -0.238304
    149 C51        -4.4170    7.8840   -0.0040 c3        1 MOL     -0.101533
    150 C52        -4.5720    9.4420   -0.1160 c         1 MOL      0.676104
    151 O22        -4.8920    9.9280   -1.2060 o         1 MOL     -0.704951
    152 O23        -4.5540    9.9970    0.9800 o         1 MOL     -0.704951
    153 H65        -1.6100    5.4510   -2.0510 hn        1 MOL      0.327848
    154 H66        -3.6920    5.4700    0.0530 h1        1 MOL     -0.109618
    155 H67        -3.2430    7.6900   -1.9210 hc        1 MOL      0.037185
    156 H68        -2.2640    7.5600   -0.4010 hc        1 MOL      0.037185
    157 H69        -4.0950    7.6010    1.0040 hc        1 MOL      0.027025
    158 H70        -5.3280    7.3810   -0.3220 hc        1 MOL      0.027025
    159 N14        -5.2030    4.1710   -1.6050 n         1 MOL     -0.469635
    160 C53        -5.1420    3.3860   -0.3640 c3        1 MOL     -0.045738
    161 C54        -5.7610    4.1090    0.8720 c         1 MOL      0.365214
    162 O24        -6.7400    4.9020    0.6770 o         1 MOL     -0.512425
    163 C55        -5.8960    2.0990   -0.6820 c3        1 MOL     -0.041775
    164 C56        -7.4360    1.9280   -0.5790 c3        1 MOL     -0.129784
    165 C57        -7.8820    0.5170   -0.4230 c         1 MOL      0.718949
    166 O25        -8.7740    0.0990   -1.1920 o         1 MOL     -0.769619
    167 O26        -7.5910   -0.2140    0.5110 o         1 MOL     -0.769619
    168 H71        -5.9640    3.9720   -2.2450 hn        1 MOL      0.328264
    169 H72        -4.0910    3.1270   -0.2780 h1        1 MOL      0.117369
    170 H73        -5.3410    1.4110   -0.0490 hc        1 MOL      0.038494
    171 H74        -5.7620    1.8800   -1.7480 hc        1 MOL      0.038494
    172 H75        -7.9830    2.3850   -1.3990 hc        1 MOL      0.067903
    173 H76        -7.7840    2.3960    0.3510 hc        1 MOL      0.067903
    174 N15        -5.3350    3.7180    2.0670 n         1 MOL     -0.173659
    175 C58        -5.9230    4.1140    3.3440 c3        1 MOL     -0.135767
    176 H77        -5.2420    4.7880    3.8640 h1        1 MOL      0.074158
    177 H78        -6.8700    4.6210    3.1670 h1        1 MOL      0.074158
    178 H79        -6.0930    3.2270    3.9560 h1        1 MOL      0.074158
    179 H80        -4.6340    2.9950    2.1120 hn        1 MOL      0.243244
    180 Ca1        -9.0790   -2.3820    0.0640 Ca        1 MOL      1.679270
    181 O27       -10.2120   -0.8200    1.9830 oh        1 MOL     -0.800491
    182 H81       -10.8810   -1.1170    2.6040 ho        1 MOL      0.381881
    183 H82        -9.8490   -0.0340    2.3820 ho        1 MOL      0.381881
    184 O28        -8.9820   -5.1470    0.1870 oh        1 MOL     -0.800491
    185 H83        -8.1170   -5.3230   -0.1830 ho        1 MOL      0.381881
    186 H84        -9.4300   -5.9910    0.1600 ho        1 MOL      0.381881
    187 O29        -9.6410   -4.1240   -2.5310 oh        1 MOL     -0.800491
    188 H85       -10.1860   -3.8220   -3.2540 ho        1 MOL      0.381881
    189 H86        -8.7480   -3.8760   -2.7900 ho        1 MOL      0.381881
    190 O30       -11.2660   -3.5550    0.8300 oh        1 MOL     -0.800491
    191 H87       -11.6200   -3.8290    1.6790 ho        1 MOL      0.381881
    192 H88       -12.0250   -3.2980    0.3090 ho        1 MOL      0.381881
    193 O31       -11.3490   -1.6700   -1.3770 oh        1 MOL     -0.800491
    194 H89       -11.4460   -0.7290   -1.5210 ho        1 MOL      0.381881
    195 H90       -12.0730   -2.0630   -1.8620 ho        1 MOL      0.381881
@<TRIPOS>BOND
     1    1    2 1   
     2    1    4 1   
     3    1    5 1   
     4    1    6 1   
     5    2    3 2   
     6    2    7 1   
     7    7    8 1   
     8    7   15 1   
     9    8    9 1   
    10    8   11 1   
    11    8   16 1   
    12    9   10 2   
    13    9   19 1   
    14   11   12 1   
    15   11   17 1   
    16   11   18 1   
    17   12   13 1   
    18   12   14 1   
    19   19   20 1   
    20   19   27 1   
    21   20   21 1   
    22   20   23 1   
    23   20   28 1   
    24   21   22 2   
    25   21   38 1   
    26   23   24 1   
    27   23   25 1   
    28   23   29 1   
    29   24   26 1   
    30   24   30 1   
    31   24   31 1   
    32   25   32 1   
    33   25   33 1   
    34   25   34 1   
    35   26   35 1   
    36   26   36 1   
    37   26   37 1   
    38   38   39 1   
    39   38   46 1   
    40   39   40 1   
    41   39   42 1   
    42   39   47 1   
    43   40   41 2   
    44   40   50 1   
    45   42   43 1   
    46   42   48 1   
    47   42   49 1   
    48   43   44 1   
    49   43   45 1   
    50   50   51 1   
    51   50   54 1   
    52   51   52 1   
    53   51   55 1   
    54   51   56 1   
    55   52   53 2   
    56   52   57 1   
    57   57   58 1   
    58   57   65 1   
    59   58   59 1   
    60   58   61 1   
    61   58   66 1   
    62   59   60 2   
    63   59   69 1   
    64   61   62 1   
    65   61   67 1   
    66   61   68 1   
    67   62   63 1   
    68   62   64 1   
    69   69   70 1   
    70   69   73 1   
    71   70   71 1   
    72   70   74 1   
    73   70   75 1   
    74   71   72 2   
    75   71   76 1   
    76   76   77 1   
    77   76   85 1   
    78   77   78 1   
    79   77   80 1   
    80   77   86 1   
    81   78   79 2   
    82   78   93 1   
    83   80   81 1   
    84   80   87 1   
    85   80   88 1   
    86   81   82 1   
    87   81   89 1   
    88   81   90 1   
    89   82   83 1   
    90   82   84 2   
    91   83   91 1   
    92   83   92 1   
    93   93   94 1   
    94   93  100 1   
    95   94   95 1   
    96   94   97 1   
    97   94  101 1   
    98   95   96 2   
    99   95  109 1   
   100   97   98 1   
   101   97   99 1   
   102   97  102 1   
   103   98  103 1   
   104   98  104 1   
   105   98  105 1   
   106   99  106 1   
   107   99  107 1   
   108   99  108 1   
   109  109  110 1   
   110  109  117 1   
   111  110  111 1   
   112  110  113 1   
   113  110  118 1   
   114  111  112 2   
   115  111  123 1   
   116  113  114 1   
   117  113  119 1   
   118  113  120 1   
   119  114  115 1   
   120  114  116 2   
   121  115  121 1   
   122  115  122 1   
   123  123  124 1   
   124  123  135 1   
   125  124  125 1   
   126  124  127 1   
   127  124  136 1   
   128  125  126 2   
   129  125  144 1   
   130  127  128 1   
   131  127  137 1   
   132  127  138 1   
   133  128  129 ar  
   134  128  130 ar  
   135  129  131 ar  
   136  129  139 1   
   137  130  132 ar  
   138  130  140 1   
   139  131  133 ar  
   140  131  141 1   
   141  132  133 ar  
   142  132  142 1   
   143  133  134 1   
   144  134  143 1   
   145  144  145 1   
   146  144  153 1   
   147  145  146 1   
   148  145  148 1   
   149  145  154 1   
   150  146  147 2   
   151  146  159 1   
   152  148  149 1   
   153  148  155 1   
   154  148  156 1   
   155  149  150 1   
   156  149  157 1   
   157  149  158 1   
   158  150  151 1   
   159  150  152 1   
   160  159  160 1   
   161  159  168 1   
   162  160  161 1   
   163  160  163 1   
   164  160  169 1   
   165  161  162 2   
   166  161  174 1   
   167  163  164 1   
   168  163  170 1   
   169  163  171 1   
   170  164  165 1   
   171  164  172 1   
   172  164  173 1   
   173  165  166 1   
   174  165  167 1   
   175  174  175 1   
   176  174  179 1   
   177  175  176 1   
   178  175  177 1   
   179  175  178 1   
   180  181  182 1   
   181  181  183 1   
   182  184  185 1   
   183  184  186 1   
   184  187  188 1   
   185  187  189 1   
   186  190  191 1   
   187  190  192 1   
   188  193  194 1   
   189  193  195 1   
@<TRIPOS>SUBSTRUCTURE
     1 MOL         1 TEMP              0 ****  ****    0 ROOT
