@<TRIPOS>MOLECULE
MOL
  189   185     1     0     0
SMALL
resp


@<TRIPOS>ATOM
      1 C1         -4.1530   -4.6630   -3.2730 c3        1 MOL     -0.397521
      2 C2         -4.9300   -3.8400   -2.2400 c         1 MOL      0.759456
      3 O1         -4.3110   -3.1890   -1.4120 o         1 MOL     -0.664468
      4 H1         -3.2170   -5.0070   -2.8320 hc        1 MOL      0.107140
      5 H2         -4.7490   -5.5240   -3.5750 hc        1 MOL      0.107140
      6 H3         -3.9370   -4.0450   -4.1450 hc        1 MOL      0.107140
      7 N1         -6.2820   -3.6730   -2.3630 n         1 MOL     -0.628837
      8 C3         -7.0790   -2.6500   -1.6520 c3        1 MOL      0.242983
      9 C4         -6.2980   -1.3710   -1.4840 c         1 MOL      0.112843
     10 O2         -6.1200   -0.9000   -0.3280 o         1 MOL     -0.270051
     11 C5         -7.7570   -3.3230   -0.4590 c3        1 MOL     -0.190385
     12 C6         -6.8970   -4.3230    0.2710 c         1 MOL      0.802692
     13 O3         -6.0060   -4.0040    1.0860 o         1 MOL     -0.747129
     14 O4         -7.1440   -5.5170    0.0120 o         1 MOL     -0.747129
     15 H4         -6.7520   -4.2950   -3.0140 hn        1 MOL      0.320676
     16 H5         -7.8320   -2.4600   -2.4220 h1        1 MOL      0.041350
     17 H6         -8.6780   -3.7870   -0.8190 hc        1 MOL      0.027765
     18 H7         -8.0760   -2.5720    0.2710 hc        1 MOL      0.027765
     19 N2         -5.7540   -0.8350   -2.5890 n         1 MOL     -0.211947
     20 C7         -5.1410    0.4770   -2.7080 c3        1 MOL     -0.006113
     21 C8         -6.0230    1.6460   -2.0410 c         1 MOL      0.381100
     22 O5         -6.6220    2.4620   -2.7110 o         1 MOL     -0.572820
     23 C9         -3.5810    0.5620   -2.5580 c3        1 MOL      0.399809
     24 C10        -2.8420    1.8380   -3.0360 c3        1 MOL     -0.013317
     25 C11        -2.7950   -0.5710   -3.1890 c3        1 MOL     -0.141741
     26 C12        -3.0460    2.2360   -4.4860 c3        1 MOL     -0.428087
     27 H8         -5.9880   -1.3110   -3.4420 hn        1 MOL      0.211431
     28 H9         -5.3230    0.7260   -3.7460 h1        1 MOL      0.016993
     29 H10        -3.3310    0.4330   -1.5030 hc        1 MOL     -0.186139
     30 H11        -1.7680    1.6840   -3.0050 hc        1 MOL      0.084248
     31 H12        -3.1030    2.6890   -2.4080 hc        1 MOL      0.084248
     32 H13        -1.7430   -0.4390   -2.9320 hc        1 MOL      0.007230
     33 H14        -3.1180   -1.4840   -2.6870 hc        1 MOL      0.007230
     34 H15        -3.0190   -0.5650   -4.2560 hc        1 MOL      0.007230
     35 H16        -2.5470    1.4980   -5.1110 hc        1 MOL      0.084991
     36 H17        -4.1260    2.2270   -4.6800 hc        1 MOL      0.084991
     37 H18        -2.6470    3.2320   -4.6690 hc        1 MOL      0.084991
     38 N3         -5.9550    1.7620   -0.7300 n         1 MOL     -0.018846
     39 C13        -6.9060    2.6150    0.0000 c3        1 MOL      0.087869
     40 C14        -6.3840    4.1040    0.1280 c         1 MOL      0.542608
     41 O6         -7.2270    4.9720    0.1900 o         1 MOL     -0.508627
     42 C15        -7.1540    1.8970    1.3520 c3        1 MOL     -0.295788
     43 C16        -8.3580    2.3900    2.0660 c         1 MOL      0.759148
     44 O7         -9.5170    1.9200    1.7460 o         1 MOL     -0.751494
     45 O8         -8.3470    3.3100    2.8980 o         1 MOL     -0.751494
     46 H19        -5.5510    0.9990   -0.2090 hn        1 MOL      0.142155
     47 H20        -7.8250    2.6920   -0.5690 h1        1 MOL      0.041340
     48 H21        -6.3190    2.0710    2.0330 hc        1 MOL      0.060513
     49 H22        -7.2320    0.8290    1.1950 hc        1 MOL      0.060513
     50 N4         -5.0720    4.4390    0.3080 n         1 MOL     -0.732059
     51 C17        -3.8820    3.5620    0.3920 c3        1 MOL      0.460392
     52 C18        -2.6400    4.1770    1.1050 c         1 MOL      0.505451
     53 O9         -2.3300    5.3020    0.9020 o         1 MOL     -0.580083
     54 H23        -4.9520    5.3270    0.7680 hn        1 MOL      0.343530
     55 H24        -3.6270    3.3200   -0.6360 h1        1 MOL     -0.049683
     56 H25        -4.2050    2.6360    0.8590 h1        1 MOL     -0.049683
     57 N5         -2.0560    3.4860    2.0710 n         1 MOL     -0.475295
     58 C19        -2.3530    2.1470    2.5450 c3        1 MOL      0.053120
     59 C20        -2.3840    1.0000    1.5100 c         1 MOL      0.056021
     60 O10        -3.3550    0.2890    1.2320 o         1 MOL     -0.575912
     61 C21        -3.6380    2.1660    3.4670 c3        1 MOL     -0.120609
     62 C22        -3.8260    0.7930    4.1380 c         1 MOL      0.697247
     63 O11        -4.9560    0.4180    4.5960 o         1 MOL     -0.680034
     64 O12        -2.8290    0.0250    4.2060 o         1 MOL     -0.680034
     65 H26        -1.2360    3.9300    2.4730 hn        1 MOL      0.284055
     66 H27        -1.5530    1.8840    3.2420 h1        1 MOL      0.106599
     67 H28        -4.5150    2.4680    2.8990 hc        1 MOL      0.056435
     68 H29        -3.4430    2.8140    4.3290 hc        1 MOL      0.056435
     69 N6         -1.2260    0.4830    1.0610 n         1 MOL     -0.036149
     70 C23         0.0970    1.0810    1.1400 c3        1 MOL     -0.042515
     71 C24         0.2430    2.2450    0.1480 c         1 MOL      0.664173
     72 O13        -0.4160    2.3350   -0.8340 o         1 MOL     -0.581489
     73 H30        -1.4090   -0.2430    0.3840 hn        1 MOL      0.185845
     74 H31         0.8310    0.2860    1.0750 h1        1 MOL      0.038185
     75 H32         0.1720    1.5020    2.1500 h1        1 MOL      0.038185
     76 N7          1.1660    3.1870    0.4910 n         1 MOL     -0.800072
     77 C25         1.3530    4.3950   -0.3190 c3        1 MOL      0.336868
     78 C26         2.1390    4.1710   -1.6420 c         1 MOL      0.246695
     79 O14         2.7750    5.0540   -2.2620 o         1 MOL     -0.487045
     80 C27         1.8660    5.5120    0.5910 c3        1 MOL     -0.116751
     81 C28         0.9270    6.1090    1.6500 c3        1 MOL     -0.135085
     82 C29         1.6190    6.9180    2.7780 c         1 MOL      0.656896
     83 N8          0.8740    7.0690    3.8500 n         1 MOL     -0.818211
     84 O15         2.8030    7.2110    2.8270 o         1 MOL     -0.555482
     85 H33         1.6260    3.1300    1.3850 hn        1 MOL      0.378118
     86 H34         0.3630    4.7450   -0.6280 h1        1 MOL      0.087674
     87 H35         2.0590    6.3770   -0.0350 hc        1 MOL      0.032757
     88 H36         2.7790    5.0910    1.0240 hc        1 MOL      0.032757
     89 H37         0.3960    5.2220    1.9810 hc        1 MOL      0.070516
     90 H38         0.1580    6.6730    1.1260 hc        1 MOL      0.070516
     91 H39        -0.0260    6.6490    4.0370 hn        1 MOL      0.364306
     92 H40         1.2490    7.5900    4.6230 hn        1 MOL      0.364306
     93 N9          2.1980    2.8980   -2.0570 n         1 MOL     -0.170156
     94 C30         2.8260    2.5930   -3.3820 c3        1 MOL     -0.024997
     95 C31         4.2840    1.9820   -3.3900 c         1 MOL      0.532727
     96 O16         4.9690    2.2360   -4.4170 o         1 MOL     -0.515393
     97 C32         2.0080    1.6250   -4.2480 c3        1 MOL      0.341757
     98 C33         0.6640    2.2960   -4.5440 c3        1 MOL     -0.261975
     99 C34         1.7540    0.2720   -3.6500 c3        1 MOL     -0.261975
    100 H41         1.6350    2.2490   -1.5250 hn        1 MOL      0.178402
    101 H42         2.8060    3.4920   -3.9970 h1        1 MOL      0.082495
    102 H43         2.5940    1.5340   -5.1640 hc        1 MOL     -0.050286
    103 H44         0.0660    2.5300   -3.6740 hc        1 MOL      0.051810
    104 H45         0.7840    3.1120   -5.2720 hc        1 MOL      0.051810
    105 H46         0.0930    1.4950   -5.0200 hc        1 MOL      0.051810
    106 H47         1.0240    0.3110   -2.8400 hc        1 MOL      0.051810
    107 H48         1.3440   -0.3490   -4.4550 hc        1 MOL      0.051810
    108 H49         2.7160   -0.0960   -3.3080 hc        1 MOL      0.051810
    109 N10         4.7720    1.3790   -2.2840 n         1 MOL     -0.452439
    110 C35         6.1820    1.0310   -2.2390 c3        1 MOL      0.019214
    111 C36         6.5890   -0.2240   -1.4690 c         1 MOL      0.596901
    112 O17         7.4760   -0.9290   -1.9200 o         1 MOL     -0.569114
    113 C37         6.9720    2.2150   -1.5450 c3        1 MOL     -0.270747
    114 C38         6.8220    3.6310   -1.9650 c         1 MOL      0.697710
    115 N11         6.1990    4.4560   -1.2090 n         1 MOL     -0.789285
    116 O18         7.3120    4.1100   -2.9590 o         1 MOL     -0.567914
    117 H50         4.1960    1.1580   -1.4910 hn        1 MOL      0.224201
    118 H51         6.6100    1.0020   -3.2500 h1        1 MOL      0.096303
    119 H52         8.0120    2.0060   -1.7660 hc        1 MOL      0.100746
    120 H53         7.0150    2.0130   -0.4690 hc        1 MOL      0.100746
    121 H54         5.5830    4.1980   -0.4510 hn        1 MOL      0.359129
    122 H55         6.2080    5.4060   -1.5490 hn        1 MOL      0.359129
    123 N12         6.0280   -0.5010   -0.3090 n         1 MOL     -0.438426
    124 C39         6.3480   -1.7380    0.4720 c3        1 MOL      0.032821
    125 C40         5.0990   -2.5770    0.7950 c         1 MOL      0.592397
    126 O19         4.0520   -2.0430    1.0860 o         1 MOL     -0.515307
    127 C41         6.8940   -1.1470    1.7620 c3        1 MOL     -0.000139
    128 C42         8.1370   -0.2750    1.6910 ca        1 MOL     -0.018258
    129 C43         7.9640    1.1190    1.8590 ca        1 MOL     -0.111468
    130 C44         9.3930   -0.7800    1.3850 ca        1 MOL     -0.111468
    131 C45         8.9870    2.0090    1.7490 ca        1 MOL     -0.267256
    132 C46        10.4610    0.1530    1.1630 ca        1 MOL     -0.267256
    133 C47        10.2770    1.5520    1.3710 ca        1 MOL      0.313504
    134 O20        11.2810    2.4760    1.1180 oh        1 MOL     -0.463036
    135 H56         5.3860    0.1310    0.1450 hn        1 MOL      0.258958
    136 H57         7.1430   -2.3410    0.0550 h1        1 MOL      0.068980
    137 H58         7.2520   -1.9860    2.3700 hc        1 MOL      0.053658
    138 H59         6.0540   -0.8230    2.3760 hc        1 MOL      0.053658
    139 H60         6.9240    1.3760    1.9780 ha        1 MOL      0.112704
    140 H61         9.4690   -1.8160    1.1030 ha        1 MOL      0.112704
    141 H62         8.8720    3.0630    1.9740 ha        1 MOL      0.146029
    142 H63        11.3670   -0.3370    0.8420 ha        1 MOL      0.146029
    143 H64        12.0740    1.9430    0.9720 ho        1 MOL      0.337907
    144 N13         5.2900   -3.8580    0.8820 n         1 MOL     -0.685551
    145 C48         4.2940   -4.8790    1.3800 c3        1 MOL      0.159566
    146 C49         3.0160   -5.0200    0.5530 c         1 MOL      0.229276
    147 O21         2.1350   -5.8310    0.8890 o         1 MOL     -0.472745
    148 C50         3.9030   -4.6120    2.8480 c3        1 MOL      0.233674
    149 C51         5.0890   -4.7540    3.7720 c3        1 MOL     -0.268105
    150 C52         4.7440   -4.7030    5.2620 c         1 MOL      0.697724
    151 O22         3.9040   -5.4880    5.7530 o         1 MOL     -0.726173
    152 O23         5.2360   -3.8000    6.0050 o         1 MOL     -0.726173
    153 H65         6.2680   -4.0940    0.8320 hn        1 MOL      0.345887
    154 H66         4.7840   -5.8540    1.4000 h1        1 MOL      0.058278
    155 H67         3.1430   -5.3330    3.1230 hc        1 MOL      0.007436
    156 H68         3.4510   -3.6230    2.9990 hc        1 MOL      0.007436
    157 H69         5.8200   -4.0020    3.4780 hc        1 MOL     -0.003082
    158 H70         5.5640   -5.7380    3.6940 hc        1 MOL     -0.003082
    159 N14         2.8210   -4.2900   -0.5280 n         1 MOL     -0.201594
    160 C53         1.6500   -4.3340   -1.3630 c3        1 MOL     -0.027592
    161 C54         1.9760   -5.1310   -2.6250 c         1 MOL      0.465721
    162 O24         1.0450   -5.5920   -3.2760 o         1 MOL     -0.531890
    163 C55         1.2090   -2.9050   -1.7010 c3        1 MOL     -0.038635
    164 C56         0.7110   -2.0500   -0.5160 c3        1 MOL      0.299547
    165 C57        -0.6620   -2.5350    0.0040 c         1 MOL      0.476581
    166 O25        -1.7150   -1.8710   -0.2940 o         1 MOL     -0.575312
    167 O26        -0.7310   -3.3720    0.9030 o         1 MOL     -0.575312
    168 H71         3.4210   -3.4840   -0.6150 hn        1 MOL      0.197769
    169 H72         0.7840   -4.7400   -0.8290 h1        1 MOL      0.137184
    170 H73         0.3970   -2.8760   -2.4270 hc        1 MOL     -0.023352
    171 H74         2.0650   -2.3270   -2.0560 hc        1 MOL     -0.023352
    172 H75         0.6600   -1.0160   -0.8550 hc        1 MOL     -0.071529
    173 H76         1.3590   -2.0840    0.3660 hc        1 MOL     -0.071529
    174 N15         3.2270   -5.3760   -3.0510 n         1 MOL     -0.204128
    175 C58         3.6940   -6.1320   -4.1920 c3        1 MOL     -0.288737
    176 H77         4.7270   -6.4390   -4.0250 h1        1 MOL      0.113038
    177 H78         3.0700   -7.0160   -4.3230 h1        1 MOL      0.113038
    178 H79         3.6390   -5.5130   -5.0870 h1        1 MOL      0.113038
    179 H80         4.0230   -5.0820   -2.5010 hn        1 MOL      0.186387
    180 Ca1        -3.9420   -2.3810    0.9340 Ca        1 MOL      1.811001
    181 O27        -3.3670   -5.0710    0.7270 oh        1 MOL     -0.943185
    182 H81        -2.5540   -5.5220    0.9520 ho        1 MOL      0.441254
    183 H82        -3.9320   -5.7700    0.3940 ho        1 MOL      0.441254
    184 O28        -2.9520   -2.4660    3.2910 oh        1 MOL     -0.943185
    185 H83        -2.8960   -1.7370    3.8970 ho        1 MOL      0.441254
    186 H84        -2.2640   -3.0720    3.5780 ho        1 MOL      0.441254
    187 O29        -5.7930   -1.2180    2.4350 oh        1 MOL     -0.943185
    188 H85        -6.6210   -1.5630    2.7560 ho        1 MOL      0.441254
    189 H86        -5.4780   -0.6530    3.1410 ho        1 MOL      0.441254
@<TRIPOS>BOND
     1    1    2 1   
     2    1    4 1   
     3    1    5 1   
     4    1    6 1   
     5    2    3 2   
     6    2    7 1   
     7    7    8 1   
     8    7   15 1   
     9    8    9 1   
    10    8   11 1   
    11    8   16 1   
    12    9   10 2   
    13    9   19 1   
    14   11   12 1   
    15   11   17 1   
    16   11   18 1   
    17   12   13 1   
    18   12   14 1   
    19   19   20 1   
    20   19   27 1   
    21   20   21 1   
    22   20   23 1   
    23   20   28 1   
    24   21   22 2   
    25   21   38 1   
    26   23   24 1   
    27   23   25 1   
    28   23   29 1   
    29   24   26 1   
    30   24   30 1   
    31   24   31 1   
    32   25   32 1   
    33   25   33 1   
    34   25   34 1   
    35   26   35 1   
    36   26   36 1   
    37   26   37 1   
    38   38   39 1   
    39   38   46 1   
    40   39   40 1   
    41   39   42 1   
    42   39   47 1   
    43   40   41 2   
    44   40   50 1   
    45   42   43 1   
    46   42   48 1   
    47   42   49 1   
    48   43   44 1   
    49   43   45 1   
    50   50   51 1   
    51   50   54 1   
    52   51   52 1   
    53   51   55 1   
    54   51   56 1   
    55   52   53 2   
    56   52   57 1   
    57   57   58 1   
    58   57   65 1   
    59   58   59 1   
    60   58   61 1   
    61   58   66 1   
    62   59   60 2   
    63   59   69 1   
    64   61   62 1   
    65   61   67 1   
    66   61   68 1   
    67   62   63 1   
    68   62   64 1   
    69   69   70 1   
    70   69   73 1   
    71   70   71 1   
    72   70   74 1   
    73   70   75 1   
    74   71   72 2   
    75   71   76 1   
    76   76   77 1   
    77   76   85 1   
    78   77   78 1   
    79   77   80 1   
    80   77   86 1   
    81   78   79 2   
    82   78   93 1   
    83   80   81 1   
    84   80   87 1   
    85   80   88 1   
    86   81   82 1   
    87   81   89 1   
    88   81   90 1   
    89   82   83 1   
    90   82   84 2   
    91   83   91 1   
    92   83   92 1   
    93   93   94 1   
    94   93  100 1   
    95   94   95 1   
    96   94   97 1   
    97   94  101 1   
    98   95   96 2   
    99   95  109 1   
   100   97   98 1   
   101   97   99 1   
   102   97  102 1   
   103   98  103 1   
   104   98  104 1   
   105   98  105 1   
   106   99  106 1   
   107   99  107 1   
   108   99  108 1   
   109  109  110 1   
   110  109  117 1   
   111  110  111 1   
   112  110  113 1   
   113  110  118 1   
   114  111  112 2   
   115  111  123 1   
   116  113  114 1   
   117  113  119 1   
   118  113  120 1   
   119  114  115 1   
   120  114  116 2   
   121  115  121 1   
   122  115  122 1   
   123  123  124 1   
   124  123  135 1   
   125  124  125 1   
   126  124  127 1   
   127  124  136 1   
   128  125  126 2   
   129  125  144 1   
   130  127  128 1   
   131  127  137 1   
   132  127  138 1   
   133  128  129 ar  
   134  128  130 ar  
   135  129  131 ar  
   136  129  139 1   
   137  130  132 ar  
   138  130  140 1   
   139  131  133 ar  
   140  131  141 1   
   141  132  133 ar  
   142  132  142 1   
   143  133  134 1   
   144  134  143 1   
   145  144  145 1   
   146  144  153 1   
   147  145  146 1   
   148  145  148 1   
   149  145  154 1   
   150  146  147 2   
   151  146  159 1   
   152  148  149 1   
   153  148  155 1   
   154  148  156 1   
   155  149  150 1   
   156  149  157 1   
   157  149  158 1   
   158  150  151 1   
   159  150  152 1   
   160  159  160 1   
   161  159  168 1   
   162  160  161 1   
   163  160  163 1   
   164  160  169 1   
   165  161  162 2   
   166  161  174 1   
   167  163  164 1   
   168  163  170 1   
   169  163  171 1   
   170  164  165 1   
   171  164  172 1   
   172  164  173 1   
   173  165  166 1   
   174  165  167 1   
   175  174  175 1   
   176  174  179 1   
   177  175  176 1   
   178  175  177 1   
   179  175  178 1   
   180  181  182 1   
   181  181  183 1   
   182  184  185 1   
   183  184  186 1   
   184  187  188 1   
   185  187  189 1   
@<TRIPOS>SUBSTRUCTURE
     1 MOL         1 TEMP              0 ****  ****    0 ROOT
