@<TRIPOS>MOLECULE
MOL
  181   177     1     0     0
SMALL
resp


@<TRIPOS>ATOM
      1 C1          7.6320    1.0820    6.0960 c3        1 MOL     -0.305929
      2 C2          6.9500    0.9570    4.7260 c         1 MOL      0.673649
      3 O1          5.7880    1.2780    4.6920 o         1 MOL     -0.542102
      4 H1          8.0580    0.1190    6.3790 hc        1 MOL      0.069567
      5 H2          8.4260    1.8270    6.0400 hc        1 MOL      0.069567
      6 H3          6.8980    1.3880    6.8420 hc        1 MOL      0.069567
      7 N1          7.6090    0.4760    3.6290 n         1 MOL     -0.441041
      8 C3          8.9090   -0.2490    3.5140 c3        1 MOL      0.071113
      9 C4          8.6830   -1.7310    3.1130 c         1 MOL      0.486878
     10 O2          7.7330   -2.3510    3.5160 o         1 MOL     -0.410048
     11 C5          9.7880    0.5720    2.5210 c3        1 MOL     -0.250630
     12 C6          8.9960    0.7900    1.2360 c         1 MOL      0.621018
     13 O3          8.3690    1.8380    1.1090 o         1 MOL     -0.661064
     14 O4          8.9480   -0.1140    0.3220 o         1 MOL     -0.661064
     15 H4          7.0730    0.5670    2.7790 hn        1 MOL      0.221137
     16 H5          9.4600   -0.3740    4.4540 h1        1 MOL      0.072543
     17 H6         10.6960    0.0070    2.3050 hc        1 MOL      0.048827
     18 H7          9.9550    1.5370    2.9860 hc        1 MOL      0.048827
     19 N2          9.7150   -2.3070    2.4540 n         1 MOL     -0.571840
     20 C7          9.6080   -3.6260    1.8410 c3        1 MOL      0.164243
     21 C8          8.3240   -3.9660    1.0520 c         1 MOL      0.498023
     22 O5          7.8340   -5.0580    1.1220 o         1 MOL     -0.500908
     23 C9          9.9550   -4.6140    3.0320 c3        1 MOL     -0.199746
     24 H8         10.5680   -1.8030    2.3010 hn        1 MOL      0.339026
     25 H9         10.4460   -3.6890    1.1380 h1        1 MOL      0.044330
     26 H10         9.3170   -4.4420    3.8910 hc        1 MOL      0.052962
     27 H11         9.9300   -5.6730    2.7520 hc        1 MOL      0.052962
     28 H12        11.0050   -4.4790    3.3140 hc        1 MOL      0.052962
     29 N3          7.8210   -2.9670    0.2950 n         1 MOL     -0.533993
     30 C10         6.5460   -3.1070   -0.3870 c3        1 MOL      0.082855
     31 C11         6.4370   -2.4270   -1.7810 c         1 MOL      0.545150
     32 O6          6.8830   -1.2850   -1.9810 o         1 MOL     -0.535719
     33 C12         5.3500   -2.7880    0.5190 c3        1 MOL     -0.292711
     34 C13         5.3220   -1.3250    1.1430 c         1 MOL      0.634032
     35 O7          4.3940   -0.9880    1.8850 o         1 MOL     -0.630228
     36 O8          6.1510   -0.5170    0.7060 o         1 MOL     -0.630228
     37 H13         8.2070   -2.0420    0.3730 hn        1 MOL      0.299163
     38 H14         6.3880   -4.1780   -0.5090 h1        1 MOL      0.042383
     39 H15         5.3070   -3.4350    1.3960 hc        1 MOL      0.100134
     40 H16         4.4150   -2.9190   -0.0230 hc        1 MOL      0.100134
     41 N4          5.6840   -3.0550   -2.6990 n         1 MOL     -0.410749
     42 C14         5.4950   -2.5240   -4.0520 c3        1 MOL     -0.217765
     43 C15         4.5190   -1.3200   -4.1300 c         1 MOL      0.580424
     44 O9          4.6770   -0.4640   -4.9950 o         1 MOL     -0.581954
     45 H17         5.3550   -3.9860   -2.5040 hn        1 MOL      0.294777
     46 H18         5.0670   -3.2850   -4.6940 h1        1 MOL      0.135774
     47 H19         6.4400   -2.1620   -4.4590 h1        1 MOL      0.135774
     48 N5          3.5650   -1.2500   -3.1960 n         1 MOL     -0.434048
     49 C16         2.6110   -0.1590   -3.0730 c3        1 MOL      0.030811
     50 C17         3.2940    1.0550   -2.3880 c         1 MOL      0.672508
     51 O10         4.2720    0.9830   -1.7510 o         1 MOL     -0.608086
     52 C18         1.3720   -0.7530   -2.3270 c3        1 MOL     -0.154654
     53 C19         0.6470   -1.8280   -3.1590 c         1 MOL      0.661599
     54 N6         -0.1580   -2.7500   -2.6610 n         1 MOL     -0.848417
     55 O11         0.7130   -1.8280   -4.3540 o         1 MOL     -0.519780
     56 H20         3.5180   -1.9220   -2.4410 hn        1 MOL      0.289985
     57 H21         2.3130    0.2160   -4.0550 h1        1 MOL      0.064637
     58 H22         0.7280    0.0550   -1.9940 hc        1 MOL      0.048869
     59 H23         1.6540   -1.2100   -1.3780 hc        1 MOL      0.048869
     60 H24        -0.2330   -2.8860   -1.6630 hn        1 MOL      0.402527
     61 H25        -0.8570   -3.1580   -3.2780 hn        1 MOL      0.402527
     62 N7          2.6190    2.1990   -2.5160 n         1 MOL     -0.405850
     63 C20         3.0220    3.5600   -2.0190 c3        1 MOL     -0.113123
     64 C21         2.0220    4.6610   -2.2910 c         1 MOL      0.650809
     65 O12         2.2220    5.3890   -3.2430 o         1 MOL     -0.573205
     66 H26         1.7920    2.1770   -3.1030 hn        1 MOL      0.277182
     67 H27         3.9270    3.8030   -2.5700 h1        1 MOL      0.072815
     68 H28         3.3140    3.5190   -0.9700 h1        1 MOL      0.072815
     69 N8          0.8960    4.7950   -1.6020 n         1 MOL     -0.378688
     70 C22         0.5950    4.1060   -0.3890 c3        1 MOL     -0.279304
     71 C23        -0.8580    3.7210   -0.3730 c         1 MOL      0.590633
     72 O13        -1.7750    4.3670   -0.8710 o         1 MOL     -0.488765
     73 C24         0.8380    5.0320    0.8380 c3        1 MOL      0.475933
     74 C25         2.3050    5.2060    1.2000 c3        1 MOL     -0.465239
     75 O14         0.2730    6.2730    0.5520 oh        1 MOL     -0.594628
     76 H29         0.1700    5.4680   -1.8280 hn        1 MOL      0.319994
     77 H30         1.1270    3.1710   -0.2060 h1        1 MOL      0.124300
     78 H31         0.3410    4.6660    1.7370 h1        1 MOL      0.003979
     79 H32         0.0170    6.6070    1.4130 ho        1 MOL      0.398239
     80 H33         2.7720    4.2520    1.4280 hc        1 MOL      0.110417
     81 H34         2.9620    5.6160    0.4380 hc        1 MOL      0.110417
     82 H35         2.3680    5.7180    2.1560 hc        1 MOL      0.110417
     83 N9         -1.1910    2.5770    0.3000 n         1 MOL     -0.521950
     84 C26        -2.5020    2.2530    0.7230 c3        1 MOL      0.038979
     85 C27        -3.1770    3.3350    1.6170 c         1 MOL      0.639025
     86 O15        -2.4840    3.8510    2.4790 o         1 MOL     -0.621562
     87 C28        -2.5900    0.8520    1.4820 c3        1 MOL      0.061789
     88 C29        -1.8880   -0.2360    0.6480 c3        1 MOL      0.040406
     89 C30        -3.9970    0.4230    1.7830 c3        1 MOL     -0.328062
     90 C31        -2.2460   -0.2600   -0.8380 c3        1 MOL     -0.210204
     91 H36        -0.4020    2.2060    0.8060 hn        1 MOL      0.279104
     92 H37        -3.1510    2.1080   -0.1430 h1        1 MOL      0.132515
     93 H38        -1.9260    1.0300    2.3310 hc        1 MOL      0.015853
     94 H39        -2.1550   -1.2320    0.9850 hc        1 MOL     -0.035590
     95 H40        -0.8100   -0.0950    0.7110 hc        1 MOL     -0.035590
     96 H41        -4.5620    0.3880    0.8520 hc        1 MOL      0.092604
     97 H42        -4.0940   -0.5570    2.2590 hc        1 MOL      0.092604
     98 H43        -4.4260    1.1630    2.4630 hc        1 MOL      0.092604
     99 H44        -1.7740   -1.1360   -1.2950 hc        1 MOL      0.057430
    100 H45        -3.3140   -0.4780   -0.8990 hc        1 MOL      0.057430
    101 H46        -1.9370    0.6220   -1.3990 hc        1 MOL      0.057430
    102 N10        -4.4260    3.8180    1.4590 n         1 MOL     -0.557915
    103 C32        -5.4560    3.5130    0.4800 c3        1 MOL      0.289070
    104 C33        -6.5540    2.6700    1.0940 c         1 MOL      0.563080
    105 O16        -6.7840    2.7860    2.2880 o         1 MOL     -0.606545
    106 C34        -6.0550    4.8250   -0.0730 c3        1 MOL     -0.253232
    107 C35        -6.9780    4.6250   -1.2220 c         1 MOL      0.731506
    108 O17        -7.7520    5.5280   -1.3830 o         1 MOL     -0.708054
    109 O18        -6.9730    3.6030   -1.9390 o         1 MOL     -0.708054
    110 H47        -4.7390    4.4550    2.1690 hn        1 MOL      0.306994
    111 H48        -5.1410    2.9100   -0.3710 h1        1 MOL     -0.082338
    112 H49        -5.2710    5.5250   -0.3370 hc        1 MOL      0.047241
    113 H50        -6.5740    5.3280    0.7510 hc        1 MOL      0.047241
    114 N11        -7.4010    2.0280    0.2710 n         1 MOL     -0.383399
    115 C36        -8.2850    0.9050    0.5740 c3        1 MOL      0.151116
    116 C37        -8.8270    0.3680   -0.7470 c         1 MOL      0.380888
    117 O19        -9.3150    1.1850   -1.5300 o         1 MOL     -0.480183
    118 C38        -9.4550    1.4250    1.3950 c3        1 MOL     -0.344158
    119 C39       -10.1920    0.3230    2.1280 ca        1 MOL      0.113777
    120 C40       -11.4630   -0.0970    1.8030 ca        1 MOL     -0.136116
    121 C41        -9.5940   -0.1900    3.3060 ca        1 MOL     -0.136116
    122 C42       -12.1750   -1.0120    2.6550 ca        1 MOL     -0.152224
    123 C43       -10.2630   -1.0820    4.1710 ca        1 MOL     -0.152224
    124 C44       -11.5600   -1.4740    3.8300 ca        1 MOL     -0.117469
    125 H51        -7.1610    2.1690   -0.7070 hn        1 MOL      0.264559
    126 H52        -7.7460    0.0920    1.0630 h1        1 MOL      0.021273
    127 H53       -10.1110    1.9750    0.7220 hc        1 MOL      0.138982
    128 H54        -9.1410    2.0970    2.1840 hc        1 MOL      0.138982
    129 H55       -11.9950    0.3160    0.9610 ha        1 MOL      0.113470
    130 H56        -8.5990    0.1580    3.5690 ha        1 MOL      0.113470
    131 H57       -13.1580   -1.3860    2.4240 ha        1 MOL      0.107585
    132 H58        -9.8140   -1.3860    5.0990 ha        1 MOL      0.107585
    133 H59       -12.0740   -2.1770    4.4720 ha        1 MOL      0.087816
    134 N12        -8.8690   -0.9560   -1.0330 n         1 MOL     -0.093480
    135 C45        -8.4310   -2.1410   -0.2690 c3        1 MOL      0.091603
    136 C46        -6.8740   -2.1420   -0.1770 c         1 MOL      0.438127
    137 O20        -6.1940   -1.1350   -0.4430 o         1 MOL     -0.500922
    138 C47        -8.9060   -3.4120   -1.0800 c3        1 MOL     -0.214816
    139 C48       -10.0650   -2.9190   -1.9500 c3        1 MOL      0.022523
    140 C49        -9.5000   -1.4970   -2.3270 c3        1 MOL      0.023956
    141 H60        -8.8570   -2.1430    0.7330 h1        1 MOL      0.004555
    142 H61        -8.0870   -3.6460   -1.7520 hc        1 MOL      0.099609
    143 H62        -9.1120   -4.2760   -0.4370 hc        1 MOL      0.099609
    144 H63       -10.2530   -3.4460   -2.8830 hc        1 MOL     -0.003085
    145 H64       -10.9720   -2.8040   -1.3500 hc        1 MOL     -0.003085
    146 H65        -8.7860   -1.5620   -3.1450 h1        1 MOL      0.051291
    147 H66       -10.3120   -0.8060   -2.5280 h1        1 MOL      0.051291
    148 N13        -6.3020   -3.3360    0.1340 n         1 MOL     -0.492207
    149 C50        -4.8330   -3.5220    0.2610 c3        1 MOL      0.377220
    150 C51        -4.4400   -4.4830    1.3840 c         1 MOL      0.329656
    151 O21        -3.5800   -5.3760    1.2250 o         1 MOL     -0.551801
    152 C52        -4.2350   -3.8560   -1.1470 c3        1 MOL      0.328037
    153 C53        -4.6040   -5.2130   -1.6990 c3        1 MOL      0.016720
    154 C54        -5.9610   -5.2470   -2.4650 c         1 MOL      0.665586
    155 O22        -6.8520   -5.9210   -1.9490 o         1 MOL     -0.727655
    156 O23        -6.0690   -4.4420   -3.4360 o         1 MOL     -0.727655
    157 H67        -6.8310   -4.1750    0.3680 hn        1 MOL      0.258888
    158 H68        -4.3350   -2.5730    0.4870 h1        1 MOL     -0.002638
    159 H69        -3.1740   -4.0610   -0.9860 hc        1 MOL     -0.113309
    160 H70        -4.2780   -3.0570   -1.8840 hc        1 MOL     -0.113309
    161 H71        -4.5910   -5.9260   -0.8740 hc        1 MOL     -0.083687
    162 H72        -3.8450   -5.5090   -2.4260 hc        1 MOL     -0.083687
    163 N14        -4.9820   -4.3790    2.5740 n         1 MOL     -0.295212
    164 C55        -5.7080   -3.3430    3.2630 c3        1 MOL     -0.152657
    165 H73        -5.8420   -2.4890    2.5980 h1        1 MOL      0.079161
    166 H74        -6.6840   -3.7230    3.5660 h1        1 MOL      0.079161
    167 H75        -5.1490   -3.0320    4.1460 h1        1 MOL      0.079161
    168 H76        -4.7840   -5.2020    3.1270 hn        1 MOL      0.261813
    169 Ca1         6.9900    1.1250   -1.0270 Ca        1 MOL      1.769984
    170 O24         5.5340    2.7390    0.7860 oh        1 MOL     -0.832366
    171 H77         4.7270    2.8790    1.2680 ho        1 MOL      0.405340
    172 H78         6.2110    3.1500    1.3190 ho        1 MOL      0.405340
    173 O25         7.8320    3.3740   -2.1470 oh        1 MOL     -0.832366
    174 H79         7.7550    4.2210   -1.7080 ho        1 MOL      0.405340
    175 H80         8.1030    3.5970   -3.0340 ho        1 MOL      0.405340
    176 O26         6.4780    1.2280   -3.8300 oh        1 MOL     -0.832366
    177 H81         7.2250    1.2560   -4.4210 ho        1 MOL      0.405340
    178 H82         5.7380    0.9810   -4.3910 ho        1 MOL      0.405340
    179 O27         9.3310    1.0240   -2.6150 oh        1 MOL     -0.832366
    180 H83         9.6200    0.4820   -3.3530 ho        1 MOL      0.405340
    181 H84         9.2690    1.9040   -2.9840 ho        1 MOL      0.405340
@<TRIPOS>BOND
     1    1    2 1   
     2    1    4 1   
     3    1    5 1   
     4    1    6 1   
     5    2    3 2   
     6    2    7 1   
     7    7    8 1   
     8    7   15 1   
     9    8    9 1   
    10    8   11 1   
    11    8   16 1   
    12    9   10 2   
    13    9   19 1   
    14   11   12 1   
    15   11   17 1   
    16   11   18 1   
    17   12   13 1   
    18   12   14 1   
    19   19   20 1   
    20   19   24 1   
    21   20   21 1   
    22   20   23 1   
    23   20   25 1   
    24   21   22 2   
    25   21   29 1   
    26   23   26 1   
    27   23   27 1   
    28   23   28 1   
    29   29   30 1   
    30   29   37 1   
    31   30   31 1   
    32   30   33 1   
    33   30   38 1   
    34   31   32 2   
    35   31   41 1   
    36   33   34 1   
    37   33   39 1   
    38   33   40 1   
    39   34   35 1   
    40   34   36 1   
    41   41   42 1   
    42   41   45 1   
    43   42   43 1   
    44   42   46 1   
    45   42   47 1   
    46   43   44 2   
    47   43   48 1   
    48   48   49 1   
    49   48   56 1   
    50   49   50 1   
    51   49   52 1   
    52   49   57 1   
    53   50   51 2   
    54   50   62 1   
    55   52   53 1   
    56   52   58 1   
    57   52   59 1   
    58   53   54 1   
    59   53   55 2   
    60   54   60 1   
    61   54   61 1   
    62   62   63 1   
    63   62   66 1   
    64   63   64 1   
    65   63   67 1   
    66   63   68 1   
    67   64   65 2   
    68   64   69 1   
    69   69   70 1   
    70   69   76 1   
    71   70   71 1   
    72   70   73 1   
    73   70   77 1   
    74   71   72 2   
    75   71   83 1   
    76   73   74 1   
    77   73   75 1   
    78   73   78 1   
    79   74   80 1   
    80   74   81 1   
    81   74   82 1   
    82   75   79 1   
    83   83   84 1   
    84   83   91 1   
    85   84   85 1   
    86   84   87 1   
    87   84   92 1   
    88   85   86 2   
    89   85  102 1   
    90   87   88 1   
    91   87   89 1   
    92   87   93 1   
    93   88   90 1   
    94   88   94 1   
    95   88   95 1   
    96   89   96 1   
    97   89   97 1   
    98   89   98 1   
    99   90   99 1   
   100   90  100 1   
   101   90  101 1   
   102  102  103 1   
   103  102  110 1   
   104  103  104 1   
   105  103  106 1   
   106  103  111 1   
   107  104  105 2   
   108  104  114 1   
   109  106  107 1   
   110  106  112 1   
   111  106  113 1   
   112  107  108 1   
   113  107  109 1   
   114  114  115 1   
   115  114  125 1   
   116  115  116 1   
   117  115  118 1   
   118  115  126 1   
   119  116  117 2   
   120  116  134 1   
   121  118  119 1   
   122  118  127 1   
   123  118  128 1   
   124  119  120 ar  
   125  119  121 ar  
   126  120  122 ar  
   127  120  129 1   
   128  121  123 ar  
   129  121  130 1   
   130  122  124 ar  
   131  122  131 1   
   132  123  124 ar  
   133  123  132 1   
   134  124  133 1   
   135  134  135 1   
   136  134  140 1   
   137  135  136 1   
   138  135  138 1   
   139  135  141 1   
   140  136  137 2   
   141  136  148 1   
   142  138  139 1   
   143  138  142 1   
   144  138  143 1   
   145  139  140 1   
   146  139  144 1   
   147  139  145 1   
   148  140  146 1   
   149  140  147 1   
   150  148  149 1   
   151  148  157 1   
   152  149  150 1   
   153  149  152 1   
   154  149  158 1   
   155  150  151 2   
   156  150  163 1   
   157  152  153 1   
   158  152  159 1   
   159  152  160 1   
   160  153  154 1   
   161  153  161 1   
   162  153  162 1   
   163  154  155 1   
   164  154  156 1   
   165  163  164 1   
   166  163  168 1   
   167  164  165 1   
   168  164  166 1   
   169  164  167 1   
   170  170  171 1   
   171  170  172 1   
   172  173  174 1   
   173  173  175 1   
   174  176  177 1   
   175  176  178 1   
   176  179  180 1   
   177  179  181 1   
@<TRIPOS>SUBSTRUCTURE
     1 MOL         1 TEMP              0 ****  ****    0 ROOT
