@<TRIPOS>MOLECULE
MOL
  192   187     1     0     0
SMALL
resp


@<TRIPOS>ATOM
      1 C1         -6.7260   -4.2780    3.5860 c3        1 MOL     -0.235746
      2 C2         -5.9200   -3.3920    2.6190 c         1 MOL      0.735127
      3 O1         -5.1880   -3.8850    1.7630 o         1 MOL     -0.593965
      4 H1         -6.8750   -3.7470    4.5260 hc        1 MOL      0.057849
      5 H2         -7.6950   -4.5110    3.1440 hc        1 MOL      0.057849
      6 H3         -6.1800   -5.2030    3.7730 hc        1 MOL      0.057849
      7 N1         -5.9910   -2.0330    2.7540 n         1 MOL     -0.698148
      8 C3         -5.4430   -1.0420    1.8310 c3        1 MOL      0.375084
      9 C4         -3.8650   -0.9860    1.5870 c         1 MOL     -0.092710
     10 O2         -3.4700   -0.1870    0.6980 o         1 MOL     -0.241525
     11 C5         -5.8570    0.3660    2.2400 c3        1 MOL     -0.053202
     12 C6         -7.2810    0.6010    2.8450 c         1 MOL      0.663103
     13 O3         -7.9770    1.4920    2.3440 o         1 MOL     -0.681390
     14 O4         -7.8140   -0.1710    3.6840 o         1 MOL     -0.681390
     15 H4         -6.6740   -1.6670    3.4080 hn        1 MOL      0.316315
     16 H5         -5.9580   -1.2650    0.9040 h1        1 MOL      0.110619
     17 H6         -5.7470    1.0240    1.3840 hc        1 MOL     -0.063524
     18 H7         -5.2210    0.7830    3.0220 hc        1 MOL     -0.063524
     19 N2         -2.9730   -1.7280    2.3680 n         1 MOL     -0.054455
     20 C7         -1.5030   -1.6580    2.3230 c3        1 MOL      0.010011
     21 C8         -0.7240   -2.7280    1.5460 c         1 MOL      0.464556
     22 O5         -1.0930   -3.9390    1.5580 o         1 MOL     -0.532290
     23 C9         -1.0760   -1.7270    3.7760 c3        1 MOL     -0.260654
     24 C10        -1.8360   -0.6860    4.6700 c3        1 MOL      0.211496
     25 C11        -1.1650   -0.5980    6.0450 c3        1 MOL     -0.165263
     26 C12        -1.0460   -1.9100    6.7060 c3        1 MOL      0.254476
     27 N3         -0.6510   -1.8690    8.1630 n4        1 MOL     -0.445317
     28 H8         -3.3310   -2.4800    2.9330 hn        1 MOL      0.200513
     29 H9         -1.1410   -0.7400    1.8450 h1        1 MOL      0.082651
     30 H10        -0.0070   -1.5370    3.8540 hc        1 MOL      0.081082
     31 H11        -1.3430   -2.7070    4.1740 hc        1 MOL      0.081082
     32 H12        -2.8950   -0.8990    4.8150 hc        1 MOL     -0.008953
     33 H13        -1.6540    0.3070    4.2570 hc        1 MOL     -0.008953
     34 H14        -1.7930    0.0590    6.6410 hc        1 MOL      0.050374
     35 H15        -0.1670   -0.1820    5.9300 hc        1 MOL      0.050374
     36 H16        -0.4280   -2.5900    6.1280 hx        1 MOL      0.018099
     37 H17        -2.0400   -2.3640    6.7140 hx        1 MOL      0.018099
     38 H18        -0.4720   -2.7930    8.5440 hn        1 MOL      0.337301
     39 H19         0.2100   -1.3760    8.3230 hn        1 MOL      0.337301
     40 H20        -1.3320   -1.4960    8.8040 hn        1 MOL      0.337301
     41 N4          0.3880   -2.5250    0.8570 n         1 MOL     -0.246799
     42 C13         1.0320   -1.1470    0.5690 c3        1 MOL     -0.462686
     43 C14         1.4670   -0.4070    1.8460 c         1 MOL      0.688448
     44 O6          0.7270    0.5380    2.2020 o         1 MOL     -0.561960
     45 C15         0.2640   -0.4010   -0.5760 c3        1 MOL     -0.369354
     46 C16         0.2710   -1.2000   -1.8750 c         1 MOL      0.785632
     47 O7          1.0360   -2.1140   -2.0330 o         1 MOL     -0.703876
     48 O8         -0.3270   -0.6940   -2.7920 o         1 MOL     -0.703876
     49 H21         0.6920   -3.3780    0.4190 hn        1 MOL      0.170193
     50 H22         2.0530   -1.2630    0.1820 h1        1 MOL      0.181490
     51 H23         0.8900    0.4570   -0.8150 hc        1 MOL      0.200657
     52 H24        -0.7760   -0.2020   -0.3510 hc        1 MOL      0.200657
     53 N5          2.5750   -0.7210    2.5560 n         1 MOL     -0.436997
     54 C17         3.5370   -1.7520    2.2650 c3        1 MOL     -0.105320
     55 C18         4.7470   -2.0320    3.2590 c         1 MOL      0.680109
     56 O9          4.8570   -1.4570    4.2990 o         1 MOL     -0.546618
     57 H25         2.7280   -0.1770    3.3940 hn        1 MOL      0.279715
     58 H26         3.9930   -1.4540    1.3210 h1        1 MOL      0.125391
     59 H27         2.9850   -2.6600    2.0480 h1        1 MOL      0.125391
     60 N6          5.6310   -2.9450    2.9270 n         1 MOL     -0.641097
     61 C19         5.7330   -3.5790    1.6020 c3        1 MOL      0.263439
     62 C20         6.7010   -2.8470    0.6870 c         1 MOL      0.247821
     63 O10         7.6600   -2.2590    1.2020 o         1 MOL     -0.427339
     64 C21         6.1500   -5.0590    1.7120 c3        1 MOL     -0.151412
     65 C22         7.3520   -5.2770    2.6310 c         1 MOL      0.701038
     66 O11         8.4360   -5.6540    2.0800 o         1 MOL     -0.640793
     67 O12         7.2870   -5.2580    3.9100 o         1 MOL     -0.640793
     68 H28         6.5290   -2.8770    3.3960 hn        1 MOL      0.361396
     69 H29         4.7200   -3.5740    1.1830 h1        1 MOL     -0.048872
     70 H30         6.3610   -5.5100    0.7410 hc        1 MOL      0.015253
     71 H31         5.3270   -5.6330    2.1290 hc        1 MOL      0.015253
     72 N7          6.5880   -2.9820   -0.6420 n         1 MOL     -0.059571
     73 C23         7.4190   -2.2100   -1.6720 c3        1 MOL     -0.320132
     74 C24         6.9760   -0.7650   -1.8520 c         1 MOL      0.633792
     75 O13         7.7160   -0.0310   -2.4660 o         1 MOL     -0.569141
     76 H32         5.9790   -3.7210   -0.9580 hn        1 MOL      0.099762
     77 H33         7.3330   -2.7330   -2.6250 h1        1 MOL      0.154007
     78 H34         8.4320   -2.2330   -1.2710 h1        1 MOL      0.154007
     79 N8          5.8010   -0.3200   -1.4340 n         1 MOL     -0.430799
     80 C25         5.3070    1.0780   -1.6550 c3        1 MOL      0.288369
     81 C26         5.0910    1.8310   -0.3840 c         1 MOL      0.439537
     82 O14         4.7200    1.2300    0.6110 o         1 MOL     -0.493085
     83 C27         4.0270    1.0940   -2.5310 c3        1 MOL      0.343152
     84 C28         4.3490    0.8640   -3.9970 c3        1 MOL     -0.262935
     85 O15         3.3090    2.2090   -2.5020 oh        1 MOL     -0.598600
     86 H35         5.0910   -0.9480   -1.0820 hn        1 MOL      0.086635
     87 H36         5.9960    1.6510   -2.2730 h1        1 MOL      0.007479
     88 H37         3.3810    0.2570   -2.2610 h1        1 MOL     -0.014223
     89 H38         2.4110    1.8720   -2.5950 ho        1 MOL      0.413166
     90 H39         3.4550    0.7230   -4.6080 hc        1 MOL      0.063479
     91 H40         4.9300    1.6570   -4.4630 hc        1 MOL      0.063479
     92 H41         5.0050   -0.0010   -4.1330 hc        1 MOL      0.063479
     93 N9          5.2630    3.1330   -0.4780 n         1 MOL     -0.341706
     94 C29         5.2850    4.0990    0.5970 c3        1 MOL     -0.253985
     95 C30         3.8830    4.7260    0.8460 c         1 MOL      0.473954
     96 O16         3.7560    5.4400    1.8540 o         1 MOL     -0.542354
     97 C31         6.4330    5.0740    0.4270 c3        1 MOL      0.206849
     98 C32         6.2530    5.9040   -0.8250 c3        1 MOL      0.317079
     99 C33         7.7740    4.3330    0.3750 c3        1 MOL     -0.323458
    100 C34         7.0400    7.2410   -0.8200 c3        1 MOL     -0.336458
    101 H42         5.4390    3.5410   -1.3970 hn        1 MOL      0.269124
    102 H43         5.5700    3.5780    1.5030 h1        1 MOL      0.161355
    103 H44         6.3820    5.7710    1.2540 hc        1 MOL      0.005550
    104 H45         5.1850    6.0400   -0.9990 hc        1 MOL     -0.097985
    105 H46         6.6480    5.3260   -1.6610 hc        1 MOL     -0.097985
    106 H47         7.7680    3.4420    0.9990 hc        1 MOL      0.084102
    107 H48         7.8780    3.8520   -0.5980 hc        1 MOL      0.084102
    108 H49         8.6260    4.9780    0.5550 hc        1 MOL      0.084102
    109 H50         6.9160    7.8310   -1.7360 hc        1 MOL      0.075366
    110 H51         6.7180    7.7280    0.0940 hc        1 MOL      0.075366
    111 H52         8.1000    6.9750   -0.8350 hc        1 MOL      0.075366
    112 N10         2.8040    4.4710    0.1130 n         1 MOL     -0.136242
    113 C35         1.4820    5.0570    0.2490 c3        1 MOL     -0.082252
    114 C36         0.4530    3.9360   -0.1190 c         1 MOL      0.377666
    115 O17         0.6100    3.0090   -0.9590 o         1 MOL     -0.475956
    116 C37         1.2220    6.2360   -0.6660 c3        1 MOL      0.433650
    117 C38         1.4340    6.0480   -2.2010 c3        1 MOL     -0.232082
    118 O18         1.8940    7.3950   -0.2180 oh        1 MOL     -0.627766
    119 H53         3.0390    3.8760   -0.6630 hn        1 MOL      0.113669
    120 H54         1.4120    5.3280    1.3040 h1        1 MOL      0.110405
    121 H55         0.1460    6.4410   -0.6130 h1        1 MOL     -0.061561
    122 H56         1.7760    8.0430   -0.9170 ho        1 MOL      0.383414
    123 H57         2.4790    5.8440   -2.4680 hc        1 MOL      0.059427
    124 H58         0.8600    5.1880   -2.5500 hc        1 MOL      0.059427
    125 H59         1.0400    6.9130   -2.7210 hc        1 MOL      0.059427
    126 N11        -0.6720    4.0060    0.6050 n         1 MOL     -0.302347
    127 C39        -1.8380    3.0410    0.4310 c3        1 MOL     -0.011625
    128 C40        -2.5180    3.0950   -0.9840 c         1 MOL      0.399961
    129 O19        -2.2970    4.0350   -1.7400 o         1 MOL     -0.502681
    130 C41        -2.9040    3.3100    1.4850 c3        1 MOL      0.223398
    131 C42        -3.5140    4.7340    1.5560 c3        1 MOL     -0.139798
    132 O20        -2.3330    3.1550    2.7900 oh        1 MOL     -0.620063
    133 H60        -0.6690    4.6190    1.3980 hn        1 MOL      0.270747
    134 H61        -1.4020    2.0480    0.5630 h1        1 MOL      0.170659
    135 H62        -3.7340    2.6170    1.3330 h1        1 MOL      0.106630
    136 H63        -2.9310    3.4370    3.4870 ho        1 MOL      0.400276
    137 H64        -4.1620    4.7540    2.4390 hc        1 MOL      0.021787
    138 H65        -2.7950    5.5470    1.4540 hc        1 MOL      0.021787
    139 H66        -4.1710    4.7280    0.6850 hc        1 MOL      0.021787
    140 N12        -3.3530    2.1140   -1.2790 n         1 MOL     -0.144384
    141 C43        -4.1640    2.1060   -2.5470 c3        1 MOL      0.025647
    142 C44        -4.5020    0.6810   -3.0280 c         1 MOL      0.629749
    143 O21        -4.8650    0.4250   -4.1810 o         1 MOL     -0.631134
    144 C45        -5.5090    2.8990   -2.2440 c3        1 MOL     -0.449919
    145 C46        -6.1790    2.7010   -0.8970 c3        1 MOL      0.387320
    146 C47        -7.1030    3.9280   -0.7970 c3        1 MOL     -0.182602
    147 C48        -7.8810    3.9160    0.5310 c3        1 MOL      0.281335
    148 N13        -8.8790    5.0090    0.7100 n4        1 MOL     -0.543640
    149 H67        -3.5020    1.3920   -0.5990 hn        1 MOL     -0.039436
    150 H68        -3.6320    2.6100   -3.3560 h1        1 MOL      0.113166
    151 H69        -6.2540    2.6590   -3.0010 hc        1 MOL      0.122575
    152 H70        -5.0520    3.8840   -2.3490 hc        1 MOL      0.122575
    153 H71        -5.4520    2.7450   -0.0920 hc        1 MOL     -0.006090
    154 H72        -6.7470    1.7710   -0.8230 hc        1 MOL     -0.006090
    155 H73        -7.8040    3.8290   -1.6270 hc        1 MOL      0.021434
    156 H74        -6.4800    4.8200   -0.8010 hc        1 MOL      0.021434
    157 H75        -7.1490    3.8180    1.3370 hx        1 MOL      0.013333
    158 H76        -8.3910    2.9540    0.5590 hx        1 MOL      0.013333
    159 H77        -9.3370    4.8070    1.5910 hn        1 MOL      0.361639
    160 H78        -8.3490    5.8700    0.7230 hn        1 MOL      0.361639
    161 H79        -9.6580    4.9630    0.0640 hn        1 MOL      0.361639
    162 N14        -4.3550   -0.2920   -2.1460 n         1 MOL     -0.474826
    163 C49        -4.3450   -1.6920   -2.5630 c3        1 MOL     -0.207974
    164 C50        -5.7780   -2.2050   -2.6770 c         1 MOL      0.481518
    165 O22        -6.4610   -2.4110   -1.6510 o         1 MOL     -0.575850
    166 C51        -3.5560   -2.4580   -1.4500 c3        1 MOL      0.551794
    167 C52        -3.2500   -3.9320   -1.7990 c3        1 MOL     -0.735570
    168 C53        -2.8140   -4.1410   -3.2420 c         1 MOL      0.728158
    169 O23        -3.6970   -4.0110   -4.1380 o         1 MOL     -0.735790
    170 O24        -1.6240   -4.2720   -3.5680 o         1 MOL     -0.735790
    171 H80        -3.8730   -0.1430   -1.2790 hn        1 MOL      0.222267
    172 H81        -3.8300   -1.7780   -3.5270 h1        1 MOL      0.244422
    173 H82        -4.1330   -2.4160   -0.5350 hc        1 MOL     -0.047726
    174 H83        -2.5910   -1.9910   -1.2540 hc        1 MOL     -0.047726
    175 H84        -4.2110   -4.4550   -1.7730 hc        1 MOL      0.186663
    176 H85        -2.5960   -4.4610   -1.1090 hc        1 MOL      0.186663
    177 N15        -6.2930   -2.3940   -3.8840 n         1 MOL     -0.085204
    178 C54        -7.6800   -2.9020   -4.1240 c3        1 MOL     -0.317532
    179 H86        -7.6590   -3.6530   -4.9140 h1        1 MOL      0.118408
    180 H87        -8.0680   -3.3480   -3.2080 h1        1 MOL      0.118408
    181 H88        -8.3220   -2.0760   -4.4270 h1        1 MOL      0.118408
    182 H89        -5.6800   -2.0950   -4.6320 hn        1 MOL      0.239524
    183 Ca1         1.0360   -4.1350   -3.6590 Ca        1 MOL      1.518919
    184 O25         0.3810   -2.0680   -5.2360 oh        1 MOL     -0.790168
    185 H90        -0.4510   -1.8300   -4.8350 ho        1 MOL      0.397039
    186 H91         0.4090   -1.5530   -6.0520 ho        1 MOL      0.397039
    187 O26         3.0790   -3.3590   -4.9250 oh        1 MOL     -0.790168
    188 H92         3.4520   -4.2300   -5.0390 ho        1 MOL      0.397039
    189 H93         3.6650   -2.7900   -5.4250 ho        1 MOL      0.397039
    190 O27         0.6730   -5.0330   -6.1020 oh        1 MOL     -0.790168
    191 H94         0.4640   -5.9680   -6.0420 ho        1 MOL      0.397039
    192 H95         0.2470   -4.7380   -6.9150 ho        1 MOL      0.397039
@<TRIPOS>BOND
     1    1    2 1   
     2    1    4 1   
     3    1    5 1   
     4    1    6 1   
     5    2    3 2   
     6    2    7 1   
     7    7    8 1   
     8    7   15 1   
     9    8    9 1   
    10    8   11 1   
    11    8   16 1   
    12    9   10 2   
    13    9   19 1   
    14   11   12 1   
    15   11   17 1   
    16   11   18 1   
    17   12   13 1   
    18   12   14 1   
    19   19   20 1   
    20   19   28 1   
    21   20   21 1   
    22   20   23 1   
    23   20   29 1   
    24   21   22 2   
    25   21   41 1   
    26   23   24 1   
    27   23   30 1   
    28   23   31 1   
    29   24   25 1   
    30   24   32 1   
    31   24   33 1   
    32   25   26 1   
    33   25   34 1   
    34   25   35 1   
    35   26   27 1   
    36   26   36 1   
    37   26   37 1   
    38   27   38 1   
    39   27   39 1   
    40   27   40 1   
    41   41   42 1   
    42   41   49 1   
    43   42   43 1   
    44   42   45 1   
    45   42   50 1   
    46   43   44 2   
    47   43   53 1   
    48   45   46 1   
    49   45   51 1   
    50   45   52 1   
    51   46   47 1   
    52   46   48 1   
    53   53   54 1   
    54   53   57 1   
    55   54   55 1   
    56   54   58 1   
    57   54   59 1   
    58   55   56 2   
    59   55   60 1   
    60   60   61 1   
    61   60   68 1   
    62   61   62 1   
    63   61   64 1   
    64   61   69 1   
    65   62   63 2   
    66   62   72 1   
    67   64   65 1   
    68   64   70 1   
    69   64   71 1   
    70   65   66 1   
    71   65   67 1   
    72   72   73 1   
    73   72   76 1   
    74   73   74 1   
    75   73   77 1   
    76   73   78 1   
    77   74   75 2   
    78   74   79 1   
    79   79   80 1   
    80   79   86 1   
    81   80   81 1   
    82   80   83 1   
    83   80   87 1   
    84   81   82 2   
    85   81   93 1   
    86   83   84 1   
    87   83   85 1   
    88   83   88 1   
    89   84   90 1   
    90   84   91 1   
    91   84   92 1   
    92   85   89 1   
    93   93   94 1   
    94   93  101 1   
    95   94   95 1   
    96   94   97 1   
    97   94  102 1   
    98   95   96 2   
    99   95  112 1   
   100   97   98 1   
   101   97   99 1   
   102   97  103 1   
   103   98  100 1   
   104   98  104 1   
   105   98  105 1   
   106   99  106 1   
   107   99  107 1   
   108   99  108 1   
   109  100  109 1   
   110  100  110 1   
   111  100  111 1   
   112  112  113 1   
   113  112  119 1   
   114  113  114 1   
   115  113  116 1   
   116  113  120 1   
   117  114  115 2   
   118  114  126 1   
   119  116  117 1   
   120  116  118 1   
   121  116  121 1   
   122  117  123 1   
   123  117  124 1   
   124  117  125 1   
   125  118  122 1   
   126  126  127 1   
   127  126  133 1   
   128  127  128 1   
   129  127  130 1   
   130  127  134 1   
   131  128  129 2   
   132  128  140 1   
   133  130  131 1   
   134  130  132 1   
   135  130  135 1   
   136  131  137 1   
   137  131  138 1   
   138  131  139 1   
   139  132  136 1   
   140  140  141 1   
   141  140  149 1   
   142  141  142 1   
   143  141  144 1   
   144  141  150 1   
   145  142  143 2   
   146  142  162 1   
   147  144  145 1   
   148  144  151 1   
   149  144  152 1   
   150  145  146 1   
   151  145  153 1   
   152  145  154 1   
   153  146  147 1   
   154  146  155 1   
   155  146  156 1   
   156  147  148 1   
   157  147  157 1   
   158  147  158 1   
   159  148  159 1   
   160  148  160 1   
   161  148  161 1   
   162  162  163 1   
   163  162  171 1   
   164  163  164 1   
   165  163  166 1   
   166  163  172 1   
   167  164  165 2   
   168  164  177 1   
   169  166  167 1   
   170  166  173 1   
   171  166  174 1   
   172  167  168 1   
   173  167  175 1   
   174  167  176 1   
   175  168  169 1   
   176  168  170 1   
   177  177  178 1   
   178  177  182 1   
   179  178  179 1   
   180  178  180 1   
   181  178  181 1   
   182  184  185 1   
   183  184  186 1   
   184  187  188 1   
   185  187  189 1   
   186  190  191 1   
   187  190  192 1   
@<TRIPOS>SUBSTRUCTURE
     1 MOL         1 TEMP              0 ****  ****    0 ROOT
