@<TRIPOS>MOLECULE
MOL
  198   191     1     0     0
SMALL
resp


@<TRIPOS>ATOM
      1 C1          5.7800    2.3440    5.6000 c3        1 MOL     -0.265985
      2 C2          5.2830    2.0650    4.1970 c         1 MOL      0.710117
      3 O1          4.6480    2.9500    3.6210 o         1 MOL     -0.567913
      4 H1          5.5710    3.3810    5.8590 hc        1 MOL      0.067675
      5 H2          5.2710    1.6850    6.3030 hc        1 MOL      0.067675
      6 H3          6.8550    2.1670    5.6470 hc        1 MOL      0.067675
      7 N1          5.5970    0.8360    3.6770 n         1 MOL     -0.631567
      8 C3          5.2630    0.3450    2.2880 c3        1 MOL      0.708429
      9 C4          3.8070    0.3360    1.8520 c         1 MOL     -0.205085
     10 O2          3.4670    0.0670    0.6940 o         1 MOL     -0.105236
     11 C5          5.9300   -1.0610    2.3600 c3        1 MOL     -0.130493
     12 C6          7.4470   -1.0050    2.6560 c         1 MOL      0.615788
     13 O3          7.7620   -0.8380    3.8680 o         1 MOL     -0.653944
     14 O4          8.2690   -0.9860    1.7370 o         1 MOL     -0.653944
     15 H4          6.1220    0.2120    4.2770 hn        1 MOL      0.248079
     16 H5          5.8350    0.9040    1.5470 h1        1 MOL     -0.007702
     17 H6          5.7240   -1.4390    1.3620 hc        1 MOL     -0.092418
     18 H7          5.4350   -1.7120    3.0860 hc        1 MOL     -0.092418
     19 N2          2.9030    0.5860    2.8020 n         1 MOL     -0.198921
     20 C7          1.5640    0.2140    2.6070 c3        1 MOL      0.052136
     21 C8          0.6460    1.4220    2.3970 c         1 MOL      0.317126
     22 O5          0.8290    2.4450    2.9060 o         1 MOL     -0.473659
     23 C9          1.1100   -0.4840    3.9180 c3        1 MOL     -0.255267
     24 C10         1.4650   -1.9490    4.0950 c3        1 MOL     -0.185634
     25 C11         2.9040   -2.4490    3.8230 c3        1 MOL     -0.033860
     26 C12         3.2010   -3.8120    4.3690 c3        1 MOL      0.088216
     27 N3          4.5020   -4.4750    3.9420 n4        1 MOL     -0.314252
     28 H8          3.2160    1.0540    3.6460 hn        1 MOL      0.239260
     29 H9          1.4490   -0.4260    1.7210 h1        1 MOL      0.163468
     30 H10         0.0430   -0.3210    4.0600 hc        1 MOL      0.116688
     31 H11         1.5220    0.1000    4.7350 hc        1 MOL      0.116688
     32 H12         0.7250   -2.6780    3.7490 hc        1 MOL      0.098689
     33 H13         1.3050   -2.1050    5.1600 hc        1 MOL      0.098689
     34 H14         3.5800   -1.7980    4.3790 hc        1 MOL      0.051333
     35 H15         3.1120   -2.3080    2.7670 hc        1 MOL      0.051333
     36 H16         2.4200   -4.4620    3.9630 hx        1 MOL      0.055751
     37 H17         3.0980   -3.9110    5.4570 hx        1 MOL      0.055751
     38 H18         4.6380   -4.3380    2.9480 hn        1 MOL      0.305342
     39 H19         5.3490   -4.2380    4.4480 hn        1 MOL      0.305342
     40 H20         4.4670   -5.4670    4.1030 hn        1 MOL      0.305342
     41 N4         -0.2700    1.3190    1.5000 n         1 MOL     -0.057951
     42 C13        -0.7510    0.2640    0.5730 c3        1 MOL     -0.178688
     43 C14        -1.0540   -1.0820    1.2180 c         1 MOL      0.539998
     44 O6         -0.5130   -2.1250    0.8840 o         1 MOL     -0.555772
     45 C15         0.0380    0.2610   -0.8060 c3        1 MOL      0.137066
     46 C16        -0.1370    1.6000   -1.5880 c         1 MOL      0.505788
     47 O7         -0.8330    2.5230   -1.0720 o         1 MOL     -0.664558
     48 O8          0.2150    1.6630   -2.7990 o         1 MOL     -0.664558
     49 H21        -0.6440    2.2130    1.1910 hn        1 MOL      0.062188
     50 H22        -1.7480    0.6590    0.3570 h1        1 MOL     -0.007209
     51 H23        -0.3340   -0.5750   -1.3930 hc        1 MOL      0.014837
     52 H24         1.1080    0.0940   -0.6410 hc        1 MOL      0.014837
     53 N5         -1.7910   -1.1700    2.3220 n         1 MOL     -0.448236
     54 C17        -2.8010   -0.2490    2.7480 c3        1 MOL      0.029280
     55 C18        -3.8250   -0.9430    3.6630 c         1 MOL      0.518393
     56 O9         -3.4740   -1.8890    4.3520 o         1 MOL     -0.535316
     57 H25        -1.9280   -2.1170    2.6620 hn        1 MOL      0.261571
     58 H26        -3.2730    0.1500    1.8560 h1        1 MOL      0.083519
     59 H27        -2.4120    0.6780    3.1840 h1        1 MOL      0.083519
     60 N6         -5.0890   -0.4660    3.8390 n         1 MOL     -0.410505
     61 C19        -5.5860    0.7730    3.1580 c3        1 MOL      0.065695
     62 C20        -6.6360    0.4650    2.1050 c         1 MOL      0.572706
     63 O10        -6.9990   -0.6630    1.7910 o         1 MOL     -0.485087
     64 C21        -5.9910    1.8080    4.2400 c3        1 MOL     -0.203118
     65 C22        -6.7520    1.1870    5.3610 c         1 MOL      0.667968
     66 O11        -7.3260    0.0840    5.2860 o         1 MOL     -0.665047
     67 O12        -6.9600    1.9550    6.3710 o         1 MOL     -0.665047
     68 H28        -5.7270   -0.9510    4.4530 hn        1 MOL      0.316483
     69 H29        -4.7890    1.3110    2.6490 h1        1 MOL     -0.050312
     70 H30        -6.5190    2.6560    3.8120 hc        1 MOL      0.041962
     71 H31        -5.1430    2.2600    4.7570 hc        1 MOL      0.041962
     72 N7         -7.1310    1.4620    1.3440 n         1 MOL     -0.305798
     73 C23        -8.0780    1.2970    0.2390 c3        1 MOL     -0.323819
     74 C24        -7.6280    0.5630   -0.9970 c         1 MOL      0.643250
     75 O13        -8.3460    0.4750   -1.9800 o         1 MOL     -0.564941
     76 H32        -6.8540    2.4240    1.4510 hn        1 MOL      0.233885
     77 H33        -8.4470    2.2450   -0.1210 h1        1 MOL      0.161067
     78 H34        -8.9490    0.8230    0.6940 h1        1 MOL      0.161067
     79 N8         -6.3470    0.1540   -1.0150 n         1 MOL     -0.413645
     80 C25        -5.6580   -0.6260   -2.0480 c3        1 MOL      0.016415
     81 C26        -4.4370   -1.2440   -1.4180 c         1 MOL      0.547448
     82 O14        -3.5550   -0.4900   -0.9690 o         1 MOL     -0.538242
     83 C27        -5.1280    0.2130   -3.2030 c3        1 MOL      0.369138
     84 C28        -6.1420    0.7290   -4.2030 c3        1 MOL     -0.435373
     85 O15        -4.2550   -0.5510   -3.9840 oh        1 MOL     -0.585313
     86 H35        -5.8630    0.3690   -0.1500 hn        1 MOL      0.109917
     87 H36        -6.3400   -1.3290   -2.5300 h1        1 MOL      0.090901
     88 H37        -4.5600    1.0680   -2.8380 h1        1 MOL     -0.020929
     89 H38        -3.4500   -0.0410   -4.0390 ho        1 MOL      0.399114
     90 H39        -6.5530    1.6450   -3.7740 hc        1 MOL      0.114905
     91 H40        -5.6680    0.8150   -5.1740 hc        1 MOL      0.114905
     92 H41        -6.9720    0.0330   -4.3640 hc        1 MOL      0.114905
     93 N9         -4.4310   -2.5610   -1.3880 n         1 MOL     -0.330224
     94 C29        -3.5750   -3.3000   -0.4730 c3        1 MOL     -0.016026
     95 C30        -2.3310   -3.8480   -1.0910 c         1 MOL      0.247248
     96 O16        -1.7200   -4.7190   -0.4340 o         1 MOL     -0.510800
     97 C31        -4.4200   -4.2460    0.3910 c3        1 MOL      0.265429
     98 C32        -4.9520   -5.4400   -0.3860 c3        1 MOL      0.174705
     99 C33        -5.6680   -3.5700    1.0630 c3        1 MOL     -0.163436
    100 C34        -5.8430   -6.4290    0.3230 c3        1 MOL     -0.301301
    101 H42        -5.1570   -3.0770   -1.8890 hn        1 MOL      0.257395
    102 H43        -3.1640   -2.6150    0.2600 h1        1 MOL      0.134491
    103 H44        -3.8480   -4.6880    1.2080 hc        1 MOL     -0.014970
    104 H45        -4.0300   -5.9710   -0.6240 hc        1 MOL     -0.046378
    105 H46        -5.4520   -5.1110   -1.3050 hc        1 MOL     -0.046378
    106 H47        -6.4230   -3.3620    0.3120 hc        1 MOL      0.024487
    107 H48        -6.0520   -4.2750    1.7990 hc        1 MOL      0.024487
    108 H49        -5.3650   -2.6630    1.5810 hc        1 MOL      0.024487
    109 H50        -5.4960   -6.6350    1.3420 hc        1 MOL      0.072205
    110 H51        -6.8550   -6.0520    0.4470 hc        1 MOL      0.072205
    111 H52        -5.8420   -7.4010   -0.1640 hc        1 MOL      0.072205
    112 N10        -1.9650   -3.4300   -2.2940 n         1 MOL     -0.008007
    113 C35        -0.9940   -4.1920   -3.1290 c3        1 MOL     -0.161512
    114 C36         0.4310   -3.9880   -2.6290 c         1 MOL      0.353460
    115 O17         1.3400   -4.5730   -3.2340 o         1 MOL     -0.539148
    116 C37        -1.2040   -3.9120   -4.6490 c3        1 MOL      0.474901
    117 C38        -0.8700   -2.5440   -5.2430 c3        1 MOL     -0.240329
    118 O18        -2.5230   -4.0990   -4.9790 oh        1 MOL     -0.708579
    119 H53        -2.5980   -2.8550   -2.8210 hn        1 MOL      0.106769
    120 H54        -1.2300   -5.2600   -3.0590 h1        1 MOL      0.125286
    121 H55        -0.7220   -4.7030   -5.2260 h1        1 MOL     -0.021172
    122 H56        -2.5700   -4.2080   -5.9280 ho        1 MOL      0.428297
    123 H57        -0.8360   -1.8210   -4.4320 hc        1 MOL      0.059095
    124 H58         0.1080   -2.6720   -5.6920 hc        1 MOL      0.059095
    125 H59        -1.6080   -2.2470   -5.9960 hc        1 MOL      0.059095
    126 N11         0.6410   -3.2080   -1.5750 n         1 MOL     -0.078664
    127 C39         1.9330   -2.6700   -1.2250 c3        1 MOL      0.070263
    128 C40         2.6370   -1.8840   -2.3810 c         1 MOL      0.301133
    129 O19         2.2500   -1.9960   -3.5550 o         1 MOL     -0.478127
    130 C41         2.9070   -3.6700   -0.5770 c3        1 MOL      0.134341
    131 C42         2.2350   -4.5660    0.4630 c3        1 MOL     -0.399705
    132 O20         3.9750   -3.0400    0.0500 oh        1 MOL     -0.436700
    133 H60        -0.1510   -2.7520   -1.1530 hn        1 MOL      0.091464
    134 H61         1.7760   -1.9180   -0.4590 h1        1 MOL      0.102163
    135 H62         3.3050   -4.3030   -1.3680 h1        1 MOL      0.032285
    136 H63         4.5540   -3.8060    0.1150 ho        1 MOL      0.311118
    137 H64         2.7640   -5.4750    0.7220 hc        1 MOL      0.108020
    138 H65         1.8960   -3.9730    1.3150 hc        1 MOL      0.108020
    139 H66         1.3060   -5.0540    0.1520 hc        1 MOL      0.108020
    140 N12         3.5820   -1.0820   -1.9800 n         1 MOL     -0.015637
    141 C43         4.5210   -0.3520   -2.8510 c3        1 MOL     -0.250350
    142 C44         4.2830    1.1680   -2.7860 c         1 MOL      0.673830
    143 O21         4.4490    1.7970   -3.8790 o         1 MOL     -0.590479
    144 C45         5.9550   -0.6150   -2.4240 c3        1 MOL     -0.092752
    145 C46         6.4290   -2.0730   -2.5630 c3        1 MOL      0.148530
    146 C47         7.4360   -2.5380   -1.5730 c3        1 MOL     -0.078204
    147 C48         7.6490   -4.0700   -1.5080 c3        1 MOL      0.150156
    148 N13         7.8670   -4.7640   -2.8250 n4        1 MOL     -0.391178
    149 H67         3.7200   -1.0510   -0.9850 hn        1 MOL      0.082573
    150 H68         4.3320   -0.5560   -3.9010 h1        1 MOL      0.124362
    151 H69         6.0540   -0.3780   -1.3600 hc        1 MOL      0.052799
    152 H70         6.6220    0.1040   -2.9170 hc        1 MOL      0.052799
    153 H71         6.8220   -2.2540   -3.5680 hc        1 MOL     -0.035920
    154 H72         5.5720   -2.7460   -2.4820 hc        1 MOL     -0.035920
    155 H73         7.1370   -2.0350   -0.6590 hc        1 MOL      0.054649
    156 H74         8.3870   -2.1640   -1.9300 hc        1 MOL      0.054649
    157 H75         6.7780   -4.5440   -1.0530 hx        1 MOL      0.023299
    158 H76         8.4320   -4.2960   -0.7840 hx        1 MOL      0.023299
    159 H77         7.9250   -5.7650   -2.7250 hn        1 MOL      0.321111
    160 H78         6.9990   -4.7170   -3.3450 hn        1 MOL      0.321111
    161 H79         8.7790   -4.5180   -3.1880 hn        1 MOL      0.321111
    162 N14         3.8260    1.7360   -1.6750 n         1 MOL      0.045606
    163 C49         3.6430    3.1710   -1.5000 c3        1 MOL     -0.720016
    164 C50         4.9540    3.9320   -1.2180 c         1 MOL      0.521095
    165 O22         5.8110    3.5570   -0.3890 o         1 MOL     -0.512119
    166 C51         2.7530    3.3640   -0.2470 c3        1 MOL      0.422327
    167 C52         2.2760    4.8270    0.0990 c3        1 MOL     -0.257586
    168 C53         1.6340    5.5510   -1.1380 c         1 MOL      0.813963
    169 O23         2.3930    6.3290   -1.7190 o         1 MOL     -0.771393
    170 O24         0.4680    5.2850   -1.4570 o         1 MOL     -0.771393
    171 H80         3.4460    1.1620   -0.9360 hn        1 MOL     -0.088213
    172 H81         3.1250    3.4930   -2.4080 h1        1 MOL      0.228460
    173 H82         3.3570    2.9910    0.5820 hc        1 MOL      0.005367
    174 H83         1.8840    2.7020   -0.3420 hc        1 MOL      0.005367
    175 H84         2.9550    5.4580    0.6660 hc        1 MOL      0.036852
    176 H85         1.4270    4.6910    0.7760 hc        1 MOL      0.036852
    177 N15         5.0490    5.1270   -1.8100 n         1 MOL     -0.310742
    178 C54         6.3030    5.8700   -1.7350 c3        1 MOL      0.019775
    179 H86         6.1170    6.8510   -1.2980 h1        1 MOL      0.034682
    180 H87         7.0130    5.3250   -1.1140 h1        1 MOL      0.034682
    181 H88         6.7150    5.9920   -2.7370 h1        1 MOL      0.034682
    182 H89         4.2170    5.5070   -2.2300 hn        1 MOL      0.332334
    183 Ca1        -2.0410    4.8970   -1.0910 Ca        1 MOL      1.795062
    184 O25        -4.4660    5.6810   -2.2000 oh        1 MOL     -0.852621
    185 H90        -4.8390    6.5160   -2.4840 ho        1 MOL      0.421939
    186 H91        -4.8870    5.0260   -2.7700 ho        1 MOL      0.421939
    187 O26        -1.6460    6.9210   -2.8370 oh        1 MOL     -0.852621
    188 H92        -0.7980    7.1660   -3.1880 ho        1 MOL      0.421939
    189 H93        -2.2590    7.0640   -3.5580 ho        1 MOL      0.421939
    190 O27        -3.6600    2.6920   -0.9600 oh        1 MOL     -0.852621
    191 H94        -3.5080    1.7540   -1.0070 ho        1 MOL      0.421939
    192 H95        -4.4080    2.7870   -0.3730 ho        1 MOL      0.421939
    193 O28        -0.9930    6.9900    0.2830 oh        1 MOL     -0.852621
    194 H96        -0.0680    7.0430    0.0140 ho        1 MOL      0.421939
    195 H97        -1.2690    7.9060    0.3420 ho        1 MOL      0.421939
    196 O29        -2.3610    3.8530   -3.5210 oh        1 MOL     -0.852621
    197 H98        -2.0320    2.9550   -3.5530 ho        1 MOL      0.421939
    198 H99        -2.2170    4.1950   -4.4050 ho        1 MOL      0.421939
@<TRIPOS>BOND
     1    1    2 1   
     2    1    4 1   
     3    1    5 1   
     4    1    6 1   
     5    2    3 2   
     6    2    7 1   
     7    7    8 1   
     8    7   15 1   
     9    8    9 1   
    10    8   11 1   
    11    8   16 1   
    12    9   10 2   
    13    9   19 1   
    14   11   12 1   
    15   11   17 1   
    16   11   18 1   
    17   12   13 1   
    18   12   14 1   
    19   19   20 1   
    20   19   28 1   
    21   20   21 1   
    22   20   23 1   
    23   20   29 1   
    24   21   22 2   
    25   21   41 1   
    26   23   24 1   
    27   23   30 1   
    28   23   31 1   
    29   24   25 1   
    30   24   32 1   
    31   24   33 1   
    32   25   26 1   
    33   25   34 1   
    34   25   35 1   
    35   26   27 1   
    36   26   36 1   
    37   26   37 1   
    38   27   38 1   
    39   27   39 1   
    40   27   40 1   
    41   41   42 1   
    42   41   49 1   
    43   42   43 1   
    44   42   45 1   
    45   42   50 1   
    46   43   44 2   
    47   43   53 1   
    48   45   46 1   
    49   45   51 1   
    50   45   52 1   
    51   46   47 1   
    52   46   48 1   
    53   53   54 1   
    54   53   57 1   
    55   54   55 1   
    56   54   58 1   
    57   54   59 1   
    58   55   56 2   
    59   55   60 1   
    60   60   61 1   
    61   60   68 1   
    62   61   62 1   
    63   61   64 1   
    64   61   69 1   
    65   62   63 2   
    66   62   72 1   
    67   64   65 1   
    68   64   70 1   
    69   64   71 1   
    70   65   66 1   
    71   65   67 1   
    72   72   73 1   
    73   72   76 1   
    74   73   74 1   
    75   73   77 1   
    76   73   78 1   
    77   74   75 2   
    78   74   79 1   
    79   79   80 1   
    80   79   86 1   
    81   80   81 1   
    82   80   83 1   
    83   80   87 1   
    84   81   82 2   
    85   81   93 1   
    86   83   84 1   
    87   83   85 1   
    88   83   88 1   
    89   84   90 1   
    90   84   91 1   
    91   84   92 1   
    92   85   89 1   
    93   93   94 1   
    94   93  101 1   
    95   94   95 1   
    96   94   97 1   
    97   94  102 1   
    98   95   96 2   
    99   95  112 1   
   100   97   98 1   
   101   97   99 1   
   102   97  103 1   
   103   98  100 1   
   104   98  104 1   
   105   98  105 1   
   106   99  106 1   
   107   99  107 1   
   108   99  108 1   
   109  100  109 1   
   110  100  110 1   
   111  100  111 1   
   112  112  113 1   
   113  112  119 1   
   114  113  114 1   
   115  113  116 1   
   116  113  120 1   
   117  114  115 2   
   118  114  126 1   
   119  116  117 1   
   120  116  118 1   
   121  116  121 1   
   122  117  123 1   
   123  117  124 1   
   124  117  125 1   
   125  118  122 1   
   126  126  127 1   
   127  126  133 1   
   128  127  128 1   
   129  127  130 1   
   130  127  134 1   
   131  128  129 2   
   132  128  140 1   
   133  130  131 1   
   134  130  132 1   
   135  130  135 1   
   136  131  137 1   
   137  131  138 1   
   138  131  139 1   
   139  132  136 1   
   140  140  141 1   
   141  140  149 1   
   142  141  142 1   
   143  141  144 1   
   144  141  150 1   
   145  142  143 2   
   146  142  162 1   
   147  144  145 1   
   148  144  151 1   
   149  144  152 1   
   150  145  146 1   
   151  145  153 1   
   152  145  154 1   
   153  146  147 1   
   154  146  155 1   
   155  146  156 1   
   156  147  148 1   
   157  147  157 1   
   158  147  158 1   
   159  148  159 1   
   160  148  160 1   
   161  148  161 1   
   162  162  163 1   
   163  162  171 1   
   164  163  164 1   
   165  163  166 1   
   166  163  172 1   
   167  164  165 2   
   168  164  177 1   
   169  166  167 1   
   170  166  173 1   
   171  166  174 1   
   172  167  168 1   
   173  167  175 1   
   174  167  176 1   
   175  168  169 1   
   176  168  170 1   
   177  177  178 1   
   178  177  182 1   
   179  178  179 1   
   180  178  180 1   
   181  178  181 1   
   182  184  185 1   
   183  184  186 1   
   184  187  188 1   
   185  187  189 1   
   186  190  191 1   
   187  190  192 1   
   188  193  194 1   
   189  193  195 1   
   190  196  197 1   
   191  196  198 1   
@<TRIPOS>SUBSTRUCTURE
     1 MOL         1 TEMP              0 ****  ****    0 ROOT
