@<TRIPOS>MOLECULE
MOL
  189   185     1     0     0
SMALL
resp


@<TRIPOS>ATOM
      1 C1         -5.2550   -4.7330   -2.9300 c3        1 MOL     -0.301450
      2 C2         -5.7560   -3.6410   -1.9290 c         1 MOL      0.662027
      3 O1         -5.1530   -3.4330   -0.8740 o         1 MOL     -0.537416
      4 H1         -4.3130   -5.1480   -2.5720 hc        1 MOL      0.073150
      5 H2         -5.9980   -5.5280   -3.0020 hc        1 MOL      0.073150
      6 H3         -5.1050   -4.2860   -3.9120 hc        1 MOL      0.073150
      7 N1         -6.8910   -3.0210   -2.2680 n         1 MOL     -0.552177
      8 C3         -7.3550   -1.7510   -1.7940 c3        1 MOL      0.237517
      9 C4         -6.1540   -0.6490   -1.6530 c         1 MOL      0.112170
     10 O2         -5.6670   -0.3720   -0.5510 o         1 MOL     -0.221756
     11 C5         -8.2030   -1.8620   -0.5820 c3        1 MOL     -0.187693
     12 C6         -7.6510   -2.7950    0.5490 c         1 MOL      0.821990
     13 O3         -6.6520   -2.3920    1.1910 o         1 MOL     -0.764732
     14 O4         -8.2650   -3.8810    0.8110 o         1 MOL     -0.764732
     15 H4         -7.2310   -3.3230   -3.1670 hn        1 MOL      0.284258
     16 H5         -8.0440   -1.4290   -2.5830 h1        1 MOL      0.027505
     17 H6         -9.1220   -2.3590   -0.9020 hc        1 MOL      0.020391
     18 H7         -8.3000   -0.8940   -0.0890 hc        1 MOL      0.020391
     19 N2         -5.7530   -0.0840   -2.8510 n         1 MOL     -0.295377
     20 C7         -4.7360    0.9410   -3.0190 c3        1 MOL      0.073131
     21 C8         -5.1210    2.2660   -2.4150 c         1 MOL      0.317530
     22 O5         -4.9410    3.2500   -3.1620 o         1 MOL     -0.545447
     23 C9         -3.3430    0.4390   -2.5710 c3        1 MOL      0.080865
     24 C10        -2.1190    1.3570   -2.8000 c3        1 MOL     -0.335214
     25 C11        -2.9910   -0.9750   -3.1870 c3        1 MOL      0.008062
     26 C12        -1.7120    1.5780   -4.2500 c3        1 MOL     -0.239272
     27 H8         -6.2600   -0.4070   -3.6580 hn        1 MOL      0.239024
     28 H9         -4.6460    1.1270   -4.0920 h1        1 MOL      0.082641
     29 H10        -3.3710    0.3230   -1.4860 hc        1 MOL     -0.175208
     30 H11        -1.2340    0.9170   -2.3370 hc        1 MOL      0.219472
     31 H12        -2.2790    2.3170   -2.3080 hc        1 MOL      0.219472
     32 H13        -2.0190   -1.3400   -2.8770 hc        1 MOL     -0.007737
     33 H14        -3.7790   -1.7230   -3.0720 hc        1 MOL     -0.007737
     34 H15        -3.0370   -0.8240   -4.2700 hc        1 MOL     -0.007737
     35 H16        -1.2370    0.6750   -4.6310 hc        1 MOL      0.057633
     36 H17        -2.6300    1.6020   -4.8270 hc        1 MOL      0.057633
     37 H18        -1.1070    2.4800   -4.3560 hc        1 MOL      0.057633
     38 N3         -5.6670    2.3320   -1.2130 n         1 MOL     -0.018338
     39 C13        -6.2670    3.5320   -0.6730 c3        1 MOL      0.038803
     40 C14        -5.3670    4.8210   -0.4830 c         1 MOL      0.431324
     41 O6         -5.8680    5.9080   -0.8360 o         1 MOL     -0.579980
     42 C15        -7.1330    3.2700    0.6470 c3        1 MOL     -0.215587
     43 C16        -7.9180    2.0110    0.5030 c         1 MOL      0.819780
     44 O7         -7.7910    1.1700    1.4180 o         1 MOL     -0.720334
     45 O8         -8.7260    1.9800   -0.4200 o         1 MOL     -0.720334
     46 H19        -5.8240    1.5050   -0.6580 hn        1 MOL      0.072503
     47 H20        -7.0460    3.7790   -1.3900 h1        1 MOL      0.044573
     48 H21        -7.8390    4.0910    0.7230 hc        1 MOL      0.035572
     49 H22        -6.4910    3.1840    1.5250 hc        1 MOL      0.035572
     50 N4         -4.2020    4.8120    0.1180 n         1 MOL     -0.363229
     51 C17        -3.3420    3.7690    0.4580 c3        1 MOL      0.069912
     52 C18        -2.1570    4.2350    1.4050 c         1 MOL      0.379882
     53 O9         -1.5100    5.2320    1.0230 o         1 MOL     -0.565729
     54 H23        -3.7690    5.7220    0.1250 hn        1 MOL      0.258651
     55 H24        -2.9630    3.5330   -0.5400 h1        1 MOL      0.092361
     56 H25        -3.8780    2.9600    0.9560 h1        1 MOL      0.092361
     57 N5         -1.6580    3.5280    2.3900 n         1 MOL     -0.316742
     58 C19        -1.9570    2.1710    2.8830 c3        1 MOL      0.069505
     59 C20        -2.0200    1.0680    1.8210 c         1 MOL      0.282434
     60 O10        -3.0670    0.4710    1.7070 o         1 MOL     -0.591532
     61 C21        -3.2150    2.1630    3.7900 c3        1 MOL     -0.105888
     62 C22        -3.1980    1.1110    4.8910 c         1 MOL      0.737758
     63 O11        -4.0390    1.2430    5.7850 o         1 MOL     -0.699768
     64 O12        -2.2520    0.2310    4.9450 o         1 MOL     -0.699768
     65 H26        -0.8380    3.9790    2.7820 hn        1 MOL      0.247658
     66 H27        -1.1370    1.9650    3.5730 h1        1 MOL      0.068283
     67 H28        -4.1790    2.0390    3.3030 hc        1 MOL      0.008396
     68 H29        -3.2240    3.1450    4.2700 hc        1 MOL      0.008396
     69 N6         -1.0990    0.8040    0.9350 n         1 MOL     -0.022522
     70 C23         0.2700    1.3580    1.0170 c3        1 MOL     -0.153076
     71 C24         0.6770    2.5240   -0.0010 c         1 MOL      0.577663
     72 O13        -0.2460    2.9850   -0.6970 o         1 MOL     -0.537441
     73 H30        -1.1330   -0.0540    0.3890 hn        1 MOL      0.069368
     74 H31         0.9750    0.5990    0.6600 h1        1 MOL      0.061775
     75 H32         0.4550    1.6590    2.0420 h1        1 MOL      0.061775
     76 N7          1.8810    3.1590    0.2280 n         1 MOL     -0.409253
     77 C25         2.3330    4.3940   -0.4840 c3        1 MOL     -0.156371
     78 C26         3.2330    4.1290   -1.6750 c         1 MOL      0.413732
     79 O14         3.7220    5.0610   -2.3420 o         1 MOL     -0.511041
     80 C27         3.0590    5.3060    0.5280 c3        1 MOL      0.239639
     81 C28         2.1680    5.9000    1.5700 c3        1 MOL     -0.211664
     82 C29         2.8720    6.6940    2.6530 c         1 MOL      0.623229
     83 N8          2.2570    7.0090    3.7240 n         1 MOL     -0.704873
     84 O15         4.0770    6.9340    2.5190 o         1 MOL     -0.579634
     85 H33         2.4530    2.8240    0.9900 hn        1 MOL      0.261935
     86 H34         1.5040    5.0130   -0.8020 h1        1 MOL      0.191105
     87 H35         3.6740    6.0500    0.0070 hc        1 MOL     -0.031119
     88 H36         3.8660    4.7090    0.9690 hc        1 MOL     -0.031119
     89 H37         1.6160    5.0850    2.0520 hc        1 MOL      0.064685
     90 H38         1.4670    6.6230    1.1410 hc        1 MOL      0.064685
     91 H39         1.2960    6.7420    3.8400 hn        1 MOL      0.337350
     92 H40         2.5730    7.8720    4.1540 hn        1 MOL      0.337350
     93 N9          3.4350    2.8640   -2.1140 n         1 MOL     -0.260738
     94 C30         4.0610    2.5390   -3.4160 c3        1 MOL     -0.055934
     95 C31         5.3340    1.6710   -3.3260 c         1 MOL      0.780209
     96 O16         6.0080    1.7200   -4.3560 o         1 MOL     -0.572129
     97 C32         2.9750    1.8990   -4.3860 c3        1 MOL      0.147103
     98 C33         1.7970    2.7970   -4.6540 c3        1 MOL     -0.212566
     99 C34         2.4620    0.4870   -3.9680 c3        1 MOL     -0.212566
    100 H41         3.0690    2.0680   -1.5960 hn        1 MOL      0.164467
    101 H42         4.5260    3.3800   -3.9240 h1        1 MOL      0.099999
    102 H43         3.5180    1.6560   -5.2930 hc        1 MOL     -0.009318
    103 H44         2.1030    3.7340   -5.1200 hc        1 MOL      0.059709
    104 H45         1.1090    2.2760   -5.3250 hc        1 MOL      0.059709
    105 H46         1.3470    3.0260   -3.6850 hc        1 MOL      0.059709
    106 H47         1.8360    0.4810   -3.0750 hc        1 MOL      0.059709
    107 H48         1.7210    0.2590   -4.7360 hc        1 MOL      0.059709
    108 H49         3.2960   -0.2210   -4.0250 hc        1 MOL      0.059709
    109 N10         5.7580    1.0450   -2.2100 n         1 MOL     -0.905538
    110 C35         7.0710    0.5190   -2.0030 c3        1 MOL      0.638193
    111 C36         7.1590   -0.9550   -1.5950 c         1 MOL      0.312674
    112 O17         8.0750   -1.6630   -1.9940 o         1 MOL     -0.498781
    113 C37         7.7330    1.3840   -1.0100 c3        1 MOL     -0.449141
    114 C38         7.6170    2.8550   -1.4720 c         1 MOL      0.697564
    115 N11         6.8320    3.6460   -0.8620 n         1 MOL     -0.798125
    116 O18         8.1140    3.2700   -2.4860 o         1 MOL     -0.553331
    117 H50         5.1130    0.8870   -1.4440 hn        1 MOL      0.350882
    118 H51         7.7200    0.5730   -2.8750 h1        1 MOL     -0.014099
    119 H52         8.7880    1.1260   -0.9720 hc        1 MOL      0.085284
    120 H53         7.2920    1.2640   -0.0250 hc        1 MOL      0.085284
    121 H54         6.2770    3.3510   -0.0710 hn        1 MOL      0.377735
    122 H55         6.6030    4.5160   -1.3360 hn        1 MOL      0.377735
    123 N12         6.2280   -1.3980   -0.6860 n         1 MOL     -0.464467
    124 C39         6.3430   -2.7110   -0.0730 c3        1 MOL      0.570651
    125 C40         4.9640   -3.2540    0.3120 c         1 MOL      0.361735
    126 O19         4.0800   -2.4320    0.3630 o         1 MOL     -0.483641
    127 C41         7.3270   -2.6960    1.1440 c3        1 MOL     -0.415204
    128 C42         7.2010   -1.4210    2.0110 ca        1 MOL      0.083596
    129 C43         8.2450   -0.5060    1.9330 ca        1 MOL     -0.166394
    130 C44         6.0420   -1.2180    2.8340 ca        1 MOL     -0.166394
    131 C45         8.2230    0.6920    2.6650 ca        1 MOL     -0.159207
    132 C46         6.0290    0.0110    3.5670 ca        1 MOL     -0.159207
    133 C47         7.0910    0.9820    3.3970 ca        1 MOL      0.177096
    134 O20         7.0100    2.1970    4.0720 oh        1 MOL     -0.436680
    135 H56         5.4340   -0.8020   -0.5000 hn        1 MOL      0.252997
    136 H57         6.7250   -3.4510   -0.7670 h1        1 MOL     -0.062178
    137 H58         8.3150   -2.8800    0.7180 hc        1 MOL      0.110275
    138 H59         7.1380   -3.5300    1.8220 hc        1 MOL      0.110275
    139 H60         9.0960   -0.7420    1.3180 ha        1 MOL      0.131494
    140 H61         5.2030   -1.8960    2.8880 ha        1 MOL      0.131494
    141 H62         9.0740    1.3580    2.6600 ha        1 MOL      0.136524
    142 H63         5.1640    0.3310    4.1370 ha        1 MOL      0.136524
    143 H64         7.8010    2.7420    3.9710 ho        1 MOL      0.325593
    144 N13         4.8280   -4.5650    0.6250 n         1 MOL     -0.635455
    145 C48         3.6510   -5.3000    1.2050 c3        1 MOL      0.097858
    146 C49         2.4400   -5.2620    0.2370 c         1 MOL      0.331313
    147 O21         1.5630   -6.0840    0.4250 o         1 MOL     -0.476705
    148 C50         3.3980   -4.6320    2.6200 c3        1 MOL      0.151388
    149 C51         3.0100   -5.6990    3.6600 c3        1 MOL     -0.295167
    150 C52         2.3490   -5.0460    4.9330 c         1 MOL      0.711909
    151 O22         1.0920   -5.0120    4.9310 o         1 MOL     -0.728900
    152 O23         3.0430   -4.5680    5.8740 o         1 MOL     -0.728900
    153 H65         5.6830   -5.0870    0.4650 hn        1 MOL      0.311092
    154 H66         3.9210   -6.3360    1.4090 h1        1 MOL      0.087903
    155 H67         2.7890   -3.7370    2.5730 hc        1 MOL      0.049936
    156 H68         4.3770   -4.2520    2.9040 hc        1 MOL      0.049936
    157 H69         3.8380   -6.3100    4.0260 hc        1 MOL      0.020488
    158 H70         2.3300   -6.4180    3.2010 hc        1 MOL      0.020488
    159 N14         2.3240   -4.3870   -0.7950 n         1 MOL     -0.068127
    160 C53         1.1960   -4.3690   -1.7100 c3        1 MOL     -0.089053
    161 C54         1.4540   -5.1180   -3.0150 c         1 MOL      0.487154
    162 O24         0.5430   -5.7720   -3.5370 o         1 MOL     -0.519475
    163 C55         0.7680   -2.8830   -2.1170 c3        1 MOL     -0.064684
    164 C56         0.0560   -2.1550   -0.9510 c3        1 MOL      0.511441
    165 C57        -1.3620   -2.5990   -0.6990 c         1 MOL      0.515880
    166 O25        -1.6910   -3.7890   -0.9890 o         1 MOL     -0.602470
    167 O26        -2.1650   -1.7890   -0.1920 o         1 MOL     -0.602470
    168 H71         3.0990   -3.7670   -1.0130 hn        1 MOL      0.103708
    169 H72         0.4130   -4.9200   -1.1800 h1        1 MOL      0.149524
    170 H73         0.0840   -2.9080   -2.9570 hc        1 MOL     -0.033182
    171 H74         1.5960   -2.2710   -2.4720 hc        1 MOL     -0.033182
    172 H75         0.1700   -1.0890   -1.1600 hc        1 MOL     -0.163213
    173 H76         0.6600   -2.3970   -0.0830 hc        1 MOL     -0.163213
    174 N15         2.6520   -5.0620   -3.5010 n         1 MOL     -0.301329
    175 C58         3.3560   -6.1040   -4.1980 c3        1 MOL     -0.352807
    176 H77         4.4290   -5.9860   -4.0390 h1        1 MOL      0.133635
    177 H78         3.0380   -7.0750   -3.8190 h1        1 MOL      0.133635
    178 H79         3.1390   -6.0390   -5.2650 h1        1 MOL      0.133635
    179 H80         3.2620   -4.3980   -3.0610 hn        1 MOL      0.258268
    180 Ca1        -4.2230   -1.8690    1.2610 Ca        1 MOL      1.674146
    181 O27        -5.6330   -0.4160    3.1240 oh        1 MOL     -0.846718
    182 H81        -5.2110    0.2910    3.6010 ho        1 MOL      0.414894
    183 H82        -6.1930    0.0280    2.4840 ho        1 MOL      0.414894
    184 O28        -3.9730   -4.3760    1.9820 oh        1 MOL     -0.846718
    185 H83        -4.2230   -4.5710    2.8870 ho        1 MOL      0.414894
    186 H84        -4.4220   -5.0360    1.4600 ho        1 MOL      0.414894
    187 O29        -3.0970   -2.0470    3.7540 oh        1 MOL     -0.846718
    188 H85        -2.6100   -2.8020    4.1020 ho        1 MOL      0.414894
    189 H86        -2.8120   -1.3040    4.2830 ho        1 MOL      0.414894
@<TRIPOS>BOND
     1    1    2 1   
     2    1    4 1   
     3    1    5 1   
     4    1    6 1   
     5    2    3 2   
     6    2    7 1   
     7    7    8 1   
     8    7   15 1   
     9    8    9 1   
    10    8   11 1   
    11    8   16 1   
    12    9   10 2   
    13    9   19 1   
    14   11   12 1   
    15   11   17 1   
    16   11   18 1   
    17   12   13 1   
    18   12   14 1   
    19   19   20 1   
    20   19   27 1   
    21   20   21 1   
    22   20   23 1   
    23   20   28 1   
    24   21   22 2   
    25   21   38 1   
    26   23   24 1   
    27   23   25 1   
    28   23   29 1   
    29   24   26 1   
    30   24   30 1   
    31   24   31 1   
    32   25   32 1   
    33   25   33 1   
    34   25   34 1   
    35   26   35 1   
    36   26   36 1   
    37   26   37 1   
    38   38   39 1   
    39   38   46 1   
    40   39   40 1   
    41   39   42 1   
    42   39   47 1   
    43   40   41 2   
    44   40   50 1   
    45   42   43 1   
    46   42   48 1   
    47   42   49 1   
    48   43   44 1   
    49   43   45 1   
    50   50   51 1   
    51   50   54 1   
    52   51   52 1   
    53   51   55 1   
    54   51   56 1   
    55   52   53 2   
    56   52   57 1   
    57   57   58 1   
    58   57   65 1   
    59   58   59 1   
    60   58   61 1   
    61   58   66 1   
    62   59   60 2   
    63   59   69 1   
    64   61   62 1   
    65   61   67 1   
    66   61   68 1   
    67   62   63 1   
    68   62   64 1   
    69   69   70 1   
    70   69   73 1   
    71   70   71 1   
    72   70   74 1   
    73   70   75 1   
    74   71   72 2   
    75   71   76 1   
    76   76   77 1   
    77   76   85 1   
    78   77   78 1   
    79   77   80 1   
    80   77   86 1   
    81   78   79 2   
    82   78   93 1   
    83   80   81 1   
    84   80   87 1   
    85   80   88 1   
    86   81   82 1   
    87   81   89 1   
    88   81   90 1   
    89   82   83 1   
    90   82   84 2   
    91   83   91 1   
    92   83   92 1   
    93   93   94 1   
    94   93  100 1   
    95   94   95 1   
    96   94   97 1   
    97   94  101 1   
    98   95   96 2   
    99   95  109 1   
   100   97   98 1   
   101   97   99 1   
   102   97  102 1   
   103   98  103 1   
   104   98  104 1   
   105   98  105 1   
   106   99  106 1   
   107   99  107 1   
   108   99  108 1   
   109  109  110 1   
   110  109  117 1   
   111  110  111 1   
   112  110  113 1   
   113  110  118 1   
   114  111  112 2   
   115  111  123 1   
   116  113  114 1   
   117  113  119 1   
   118  113  120 1   
   119  114  115 1   
   120  114  116 2   
   121  115  121 1   
   122  115  122 1   
   123  123  124 1   
   124  123  135 1   
   125  124  125 1   
   126  124  127 1   
   127  124  136 1   
   128  125  126 2   
   129  125  144 1   
   130  127  128 1   
   131  127  137 1   
   132  127  138 1   
   133  128  129 ar  
   134  128  130 ar  
   135  129  131 ar  
   136  129  139 1   
   137  130  132 ar  
   138  130  140 1   
   139  131  133 ar  
   140  131  141 1   
   141  132  133 ar  
   142  132  142 1   
   143  133  134 1   
   144  134  143 1   
   145  144  145 1   
   146  144  153 1   
   147  145  146 1   
   148  145  148 1   
   149  145  154 1   
   150  146  147 2   
   151  146  159 1   
   152  148  149 1   
   153  148  155 1   
   154  148  156 1   
   155  149  150 1   
   156  149  157 1   
   157  149  158 1   
   158  150  151 1   
   159  150  152 1   
   160  159  160 1   
   161  159  168 1   
   162  160  161 1   
   163  160  163 1   
   164  160  169 1   
   165  161  162 2   
   166  161  174 1   
   167  163  164 1   
   168  163  170 1   
   169  163  171 1   
   170  164  165 1   
   171  164  172 1   
   172  164  173 1   
   173  165  166 1   
   174  165  167 1   
   175  174  175 1   
   176  174  179 1   
   177  175  176 1   
   178  175  177 1   
   179  175  178 1   
   180  181  182 1   
   181  181  183 1   
   182  184  185 1   
   183  184  186 1   
   184  187  188 1   
   185  187  189 1   
@<TRIPOS>SUBSTRUCTURE
     1 MOL         1 TEMP              0 ****  ****    0 ROOT
