@<TRIPOS>MOLECULE
MOL
  186   183     1     0     0
SMALL
resp


@<TRIPOS>ATOM
      1 C1        -11.0120    0.9230    4.4430 c3        1 MOL     -0.472675
      2 C2        -10.5270    0.9670    3.0160 c         1 MOL      0.858678
      3 O1        -10.3560   -0.1110    2.3800 o         1 MOL     -0.689140
      4 H1        -11.3880   -0.0750    4.6680 hc        1 MOL      0.120179
      5 H2        -10.1880    1.1600    5.1160 hc        1 MOL      0.120179
      6 H3        -11.8130    1.6510    4.5780 hc        1 MOL      0.120179
      7 N1        -10.4660    2.1940    2.4500 n         1 MOL     -0.492671
      8 C3        -10.3360    2.5190    1.0050 c3        1 MOL     -0.386253
      9 C4         -8.9830    2.0020    0.5050 c         1 MOL      0.555971
     10 O2         -7.9390    2.3410    1.0480 o         1 MOL     -0.676090
     11 C5        -10.4470    4.0370    0.7070 c3        1 MOL     -0.014261
     12 C6         -9.7830    4.8480    1.6950 c         1 MOL      0.787955
     13 O3         -8.5740    5.1250    1.5560 o         1 MOL     -0.760415
     14 O4        -10.4420    5.4200    2.6310 o         1 MOL     -0.760415
     15 H4        -10.6420    3.0020    3.0410 hn        1 MOL      0.312547
     16 H5        -11.1650    2.0500    0.4730 h1        1 MOL      0.177536
     17 H6        -11.4980    4.3220    0.7050 hc        1 MOL      0.078132
     18 H7        -10.0600    4.2790   -0.2850 hc        1 MOL      0.078132
     19 N2         -9.1040    1.1480   -0.5290 n         1 MOL     -0.361201
     20 C7         -8.0670    0.1970   -0.9550 c3        1 MOL      0.223973
     21 C8         -7.0040    0.8570   -1.8510 c         1 MOL      0.354564
     22 O5         -6.8440    0.4100   -2.9970 o         1 MOL     -0.497816
     23 C9         -8.7690   -1.0980   -1.5070 c3        1 MOL     -0.162501
     24 C10        -9.5470   -1.8400   -0.4180 c3        1 MOL      0.125890
     25 C11       -10.3810   -3.0510   -1.0000 c3        1 MOL     -0.117956
     26 C12       -11.3200   -3.5240    0.1090 c3        1 MOL     -0.024174
     27 N3        -12.2760   -4.4890   -0.4700 n4        1 MOL     -0.081838
     28 H8        -10.0110    0.9330   -0.9270 hn        1 MOL      0.259016
     29 H9         -7.4620   -0.1560   -0.1200 h1        1 MOL      0.057131
     30 H10        -7.9810   -1.6450   -2.0370 hc        1 MOL      0.056172
     31 H11        -9.5500   -0.7970   -2.1960 hc        1 MOL      0.056172
     32 H12       -10.2000   -1.0780   -0.0010 hc        1 MOL      0.012131
     33 H13        -8.8900   -2.2800    0.3330 hc        1 MOL      0.012131
     34 H14        -9.6240   -3.7520   -1.3630 hc        1 MOL      0.055684
     35 H15       -11.0500   -2.6470   -1.7680 hc        1 MOL      0.055684
     36 H16       -11.9160   -2.7520    0.6050 hx        1 MOL      0.094578
     37 H17       -10.7620   -4.1100    0.8270 hx        1 MOL      0.094578
     38 H18       -11.7730   -5.2420   -0.9150 hn        1 MOL      0.218739
     39 H19       -12.8440   -5.0260    0.1770 hn        1 MOL      0.218739
     40 H20       -12.8700   -4.1440   -1.2040 hn        1 MOL      0.218739
     41 N4         -6.4560    1.9450   -1.4060 n         1 MOL     -0.101559
     42 C13        -5.2390    2.5920   -2.0670 c3        1 MOL     -0.324325
     43 C14        -4.0620    2.7820   -1.0460 c         1 MOL      0.941562
     44 O6         -4.0750    3.7080   -0.2470 o         1 MOL     -0.782019
     45 C15        -5.6990    3.8830   -2.8000 c3        1 MOL     -0.079081
     46 C16        -6.5850    4.7940   -1.9860 c         1 MOL      0.702668
     47 O7         -7.4170    5.5030   -2.5810 o         1 MOL     -0.691109
     48 O8         -6.4900    4.8410   -0.7510 o         1 MOL     -0.691109
     49 H21        -6.7530    2.2050   -0.4780 hn        1 MOL      0.153480
     50 H22        -4.8660    1.9310   -2.8510 h1        1 MOL      0.138498
     51 H23        -6.1060    3.7180   -3.7980 hc        1 MOL      0.058773
     52 H24        -4.7750    4.4490   -2.8870 hc        1 MOL      0.058773
     53 N5         -3.0240    1.9190   -1.0150 n         1 MOL     -0.592622
     54 C17        -2.9290    0.6300   -1.7590 c3        1 MOL     -0.139378
     55 C18        -3.7480   -0.5420   -1.2390 c         1 MOL      0.687830
     56 O9         -4.6290   -0.4520   -0.3980 o         1 MOL     -0.591608
     57 H25        -2.3790    2.0650   -0.2540 hn        1 MOL      0.334445
     58 H26        -1.8800    0.4170   -1.6060 h1        1 MOL      0.124325
     59 H27        -3.0480    0.7180   -2.8400 h1        1 MOL      0.124325
     60 N6         -3.4760   -1.7030   -1.7920 n         1 MOL     -0.504570
     61 C19        -4.0020   -3.0090   -1.3330 c3        1 MOL      0.020420
     62 C20        -3.0310   -4.1090   -1.2660 c         1 MOL      0.570370
     63 O10        -1.8770   -3.9140   -1.7070 o         1 MOL     -0.475457
     64 C21        -5.2070   -3.3260   -2.2690 c3        1 MOL     -0.209177
     65 C22        -4.8330   -3.6770   -3.7250 c         1 MOL      0.776195
     66 O11        -4.2620   -4.7470   -3.9180 o         1 MOL     -0.675236
     67 O12        -5.1860   -2.9920   -4.6460 o         1 MOL     -0.675236
     68 H28        -2.7520   -1.7860   -2.4890 hn        1 MOL      0.308378
     69 H29        -4.4270   -2.8810   -0.3370 h1        1 MOL      0.035686
     70 H30        -5.8130   -2.4270   -2.2840 hc        1 MOL      0.021891
     71 H31        -5.7890   -4.1420   -1.8220 hc        1 MOL      0.021891
     72 N7         -3.4180   -5.2270   -0.6470 n         1 MOL     -0.393028
     73 C23        -2.7050   -6.4580   -0.4470 c3        1 MOL     -0.175251
     74 C24        -1.3230   -6.3770    0.1280 c         1 MOL      0.540567
     75 O13        -0.4300   -7.1080   -0.2390 o         1 MOL     -0.511891
     76 H32        -4.3900   -5.1700   -0.3860 hn        1 MOL      0.282171
     77 H33        -2.5800   -7.0260   -1.3710 h1        1 MOL      0.118902
     78 H34        -3.3740   -6.9910    0.2170 h1        1 MOL      0.118902
     79 N8         -1.0860   -5.2880    0.9630 n         1 MOL     -0.474006
     80 C25         0.3190   -4.9170    1.3290 c3        1 MOL      0.117001
     81 C26         0.6930   -3.5110    1.0050 c         1 MOL      0.633266
     82 O14        -0.2310   -2.6530    0.8060 o         1 MOL     -0.567705
     83 C27         0.6490   -5.1410    2.8010 c3        1 MOL      0.392392
     84 C28        -0.0750   -4.1750    3.7640 c3        1 MOL     -0.298246
     85 O15         0.3340   -6.4740    3.1910 oh        1 MOL     -0.623248
     86 H35        -1.8630   -4.6580    1.1200 hn        1 MOL      0.252696
     87 H36         1.0290   -5.6100    0.8780 h1        1 MOL      0.033646
     88 H37         1.7160   -4.9430    2.8770 h1        1 MOL     -0.064165
     89 H38         0.9430   -7.0930    2.7790 ho        1 MOL      0.380521
     90 H39        -1.1320   -4.1550    3.5230 hc        1 MOL      0.080566
     91 H40         0.1510   -4.4130    4.8050 hc        1 MOL      0.080566
     92 H41         0.3670   -3.2230    3.4550 hc        1 MOL      0.080566
     93 N9          2.0130   -3.2140    0.7880 n         1 MOL     -0.607355
     94 C29         2.5050   -1.8630    0.3280 c3        1 MOL      0.196096
     95 C30         3.9070   -2.0510   -0.2730 c         1 MOL      0.516589
     96 O16         4.1940   -1.5480   -1.3660 o         1 MOL     -0.520426
     97 C31         2.3540   -0.8330    1.4380 c3        1 MOL      0.009565
     98 C32         2.6670    0.6420    1.0640 c3        1 MOL      0.009667
     99 C33         3.1600   -1.2320    2.6340 c3        1 MOL     -0.475820
    100 C34         1.8900    1.1780   -0.1700 c3        1 MOL     -0.457418
    101 H42         2.6990   -3.9240    0.9900 hn        1 MOL      0.284693
    102 H43         2.0550   -1.4460   -0.5720 h1        1 MOL      0.037321
    103 H44         1.3520   -0.8670    1.8540 hc        1 MOL      0.090771
    104 H45         3.7410    0.7980    0.9360 hc        1 MOL      0.044056
    105 H46         2.4120    1.3480    1.8520 hc        1 MOL      0.044056
    106 H47         4.2210   -1.3530    2.4620 hc        1 MOL      0.112146
    107 H48         2.9580   -0.5810    3.4860 hc        1 MOL      0.112146
    108 H49         2.7670   -2.1900    2.9740 hc        1 MOL      0.112146
    109 H50         2.1490    0.5530   -1.0160 hc        1 MOL      0.130669
    110 H51         0.8290    1.0330    0.0130 hc        1 MOL      0.130669
    111 H52         2.2340    2.1430   -0.5410 hc        1 MOL      0.130669
    112 N10         4.8110   -2.7840    0.3370 n         1 MOL     -0.373047
    113 C35         6.1110   -3.2990   -0.2360 c3        1 MOL     -0.084788
    114 C36         7.2010   -3.1740    0.8010 c         1 MOL      0.620806
    115 O17         6.9190   -3.3430    1.9830 o         1 MOL     -0.540639
    116 C37         6.0330   -4.7770   -0.6940 c3        1 MOL      0.356938
    117 C38         4.8120   -4.9980   -1.5940 c3        1 MOL     -0.322361
    118 O18         7.2550   -5.1470   -1.3800 oh        1 MOL     -0.709252
    119 H53         4.6180   -3.0050    1.3070 hn        1 MOL      0.230016
    120 H54         6.4450   -2.7210   -1.0980 h1        1 MOL      0.114283
    121 H55         5.8990   -5.4150    0.1820 h1        1 MOL      0.009145
    122 H56         7.1210   -5.8270   -2.0290 ho        1 MOL      0.438567
    123 H57         4.9320   -5.9710   -2.0630 hc        1 MOL      0.095235
    124 H58         3.9510   -4.8950   -0.9410 hc        1 MOL      0.095235
    125 H59         4.7940   -4.2610   -2.4050 hc        1 MOL      0.095235
    126 N11         8.4240   -2.8920    0.4020 n         1 MOL     -0.519522
    127 C39         9.4650   -2.3810    1.3080 c3        1 MOL      0.035484
    128 C40         9.5400   -0.7770    1.4320 c         1 MOL      0.623397
    129 O19         9.9120   -0.3800    2.5050 o         1 MOL     -0.560699
    130 C41        10.8460   -2.8770    0.7740 c3        1 MOL      0.312294
    131 C42        12.0540   -2.6640    1.7770 c3        1 MOL     -0.378626
    132 O20        11.2520   -2.2320   -0.4010 oh        1 MOL     -0.634055
    133 H60         8.6440   -2.8650   -0.5950 hn        1 MOL      0.307075
    134 H61         9.3630   -2.7440    2.3250 h1        1 MOL      0.110837
    135 H62        10.7620   -3.9380    0.5560 h1        1 MOL      0.019718
    136 H63        11.9260   -2.8350   -0.7360 ho        1 MOL      0.403915
    137 H64        12.7040   -1.8090    1.5910 hc        1 MOL      0.092916
    138 H65        11.6640   -2.5170    2.7750 hc        1 MOL      0.092916
    139 H66        12.7470   -3.5140    1.7060 hc        1 MOL      0.092916
    140 N12         9.0190   -0.0340    0.4450 n         1 MOL     -0.467314
    141 C43         9.2220    1.4420    0.3890 c3        1 MOL      0.027363
    142 C44         8.0320    2.1450   -0.2520 c         1 MOL      0.470259
    143 O21         7.1640    1.4930   -0.9270 o         1 MOL     -0.492187
    144 C45        10.4980    1.7060   -0.3560 c3        1 MOL      0.029549
    145 C46        11.7900    1.4560    0.4320 c3        1 MOL      0.035703
    146 C47        12.9840    1.9140   -0.3740 c3        1 MOL     -0.136382
    147 C48        13.1370    1.2980   -1.7740 c3        1 MOL      0.271044
    148 N13        14.4180    1.7370   -2.3860 n4        1 MOL     -0.425178
    149 H67         8.6720   -0.4610   -0.3990 hn        1 MOL      0.265709
    150 H68         9.3340    1.8180    1.4060 h1        1 MOL      0.109707
    151 H69        10.4570    2.7250   -0.7420 hc        1 MOL      0.005440
    152 H70        10.6330    1.0140   -1.1900 hc        1 MOL      0.005440
    153 H71        11.8700    0.3830    0.5970 hc        1 MOL      0.021672
    154 H72        11.6780    2.0340    1.3380 hc        1 MOL      0.021672
    155 H73        13.8620    1.4430    0.0720 hc        1 MOL      0.038776
    156 H74        12.9700    3.0030   -0.4480 hc        1 MOL      0.038776
    157 H75        12.3140    1.5420   -2.4460 hx        1 MOL      0.020157
    158 H76        13.0210    0.2170   -1.6870 hx        1 MOL      0.020157
    159 H77        15.1890    1.3630   -1.8530 hn        1 MOL      0.267565
    160 H78        14.6250    1.3830   -3.3030 hn        1 MOL      0.267565
    161 H79        14.4260    2.7450   -2.4760 hn        1 MOL      0.267565
    162 N14         7.9070    3.3960    0.0910 n         1 MOL     -0.367737
    163 C49         6.9940    4.3720   -0.4700 c3        1 MOL      0.107060
    164 C50         5.5200    4.3140   -0.1740 c         1 MOL      0.338753
    165 O22         4.6500    4.5550   -1.0550 o         1 MOL     -0.520084
    166 C51         7.5090    5.7440   -0.1420 c3        1 MOL     -0.019518
    167 C52         6.8560    6.9310   -0.9790 c3        1 MOL     -0.304567
    168 C53         7.6600    8.2280   -0.7660 c         1 MOL      0.741545
    169 O23         7.8310    8.7300    0.3390 o         1 MOL     -0.648450
    170 O24         8.3000    8.7340   -1.7110 o         1 MOL     -0.648450
    171 H80         8.3960    3.6820    0.9190 hn        1 MOL      0.224723
    172 H81         7.0660    4.2410   -1.5440 h1        1 MOL      0.080265
    173 H82         8.5790    5.7800   -0.3790 hc        1 MOL      0.031570
    174 H83         7.4340    5.9260    0.9270 hc        1 MOL      0.031570
    175 H84         5.7890    7.0740   -0.8160 hc        1 MOL      0.079709
    176 H85         7.0300    6.6740   -2.0160 hc        1 MOL      0.079709
    177 N15         5.0540    4.1670    1.0680 n         1 MOL     -0.159790
    178 C54         5.7720    4.0210    2.3490 c3        1 MOL     -0.187448
    179 H86         6.4860    4.8370    2.4590 h1        1 MOL      0.083475
    180 H87         5.0580    4.0510    3.1720 h1        1 MOL      0.083475
    181 H88         6.3040    3.0700    2.3630 h1        1 MOL      0.083475
    182 H89         4.0520    4.2150    1.1190 hn        1 MOL      0.241007
    183 Ca1        -6.1050    4.1220    1.7740 Ca        1 MOL      1.738434
    184 O25        -5.2750    1.3430    1.7530 oh        1 MOL     -0.902859
    185 H90        -5.9280    0.8910    2.2790 ho        1 MOL      0.424825
    186 H91        -4.8480    0.6470    1.2600 ho        1 MOL      0.424825
@<TRIPOS>BOND
     1    1    2 1   
     2    1    4 1   
     3    1    5 1   
     4    1    6 1   
     5    2    3 2   
     6    2    7 1   
     7    7    8 1   
     8    7   15 1   
     9    8    9 1   
    10    8   11 1   
    11    8   16 1   
    12    9   10 2   
    13    9   19 1   
    14   11   12 1   
    15   11   17 1   
    16   11   18 1   
    17   12   13 1   
    18   12   14 1   
    19   19   20 1   
    20   19   28 1   
    21   20   21 1   
    22   20   23 1   
    23   20   29 1   
    24   21   22 2   
    25   21   41 1   
    26   23   24 1   
    27   23   30 1   
    28   23   31 1   
    29   24   25 1   
    30   24   32 1   
    31   24   33 1   
    32   25   26 1   
    33   25   34 1   
    34   25   35 1   
    35   26   27 1   
    36   26   36 1   
    37   26   37 1   
    38   27   38 1   
    39   27   39 1   
    40   27   40 1   
    41   41   42 1   
    42   41   49 1   
    43   42   43 1   
    44   42   45 1   
    45   42   50 1   
    46   43   44 2   
    47   43   53 1   
    48   45   46 1   
    49   45   51 1   
    50   45   52 1   
    51   46   47 1   
    52   46   48 1   
    53   53   54 1   
    54   53   57 1   
    55   54   55 1   
    56   54   58 1   
    57   54   59 1   
    58   55   56 2   
    59   55   60 1   
    60   60   61 1   
    61   60   68 1   
    62   61   62 1   
    63   61   64 1   
    64   61   69 1   
    65   62   63 2   
    66   62   72 1   
    67   64   65 1   
    68   64   70 1   
    69   64   71 1   
    70   65   66 1   
    71   65   67 1   
    72   72   73 1   
    73   72   76 1   
    74   73   74 1   
    75   73   77 1   
    76   73   78 1   
    77   74   75 2   
    78   74   79 1   
    79   79   80 1   
    80   79   86 1   
    81   80   81 1   
    82   80   83 1   
    83   80   87 1   
    84   81   82 2   
    85   81   93 1   
    86   83   84 1   
    87   83   85 1   
    88   83   88 1   
    89   84   90 1   
    90   84   91 1   
    91   84   92 1   
    92   85   89 1   
    93   93   94 1   
    94   93  101 1   
    95   94   95 1   
    96   94   97 1   
    97   94  102 1   
    98   95   96 2   
    99   95  112 1   
   100   97   98 1   
   101   97   99 1   
   102   97  103 1   
   103   98  100 1   
   104   98  104 1   
   105   98  105 1   
   106   99  106 1   
   107   99  107 1   
   108   99  108 1   
   109  100  109 1   
   110  100  110 1   
   111  100  111 1   
   112  112  113 1   
   113  112  119 1   
   114  113  114 1   
   115  113  116 1   
   116  113  120 1   
   117  114  115 2   
   118  114  126 1   
   119  116  117 1   
   120  116  118 1   
   121  116  121 1   
   122  117  123 1   
   123  117  124 1   
   124  117  125 1   
   125  118  122 1   
   126  126  127 1   
   127  126  133 1   
   128  127  128 1   
   129  127  130 1   
   130  127  134 1   
   131  128  129 2   
   132  128  140 1   
   133  130  131 1   
   134  130  132 1   
   135  130  135 1   
   136  131  137 1   
   137  131  138 1   
   138  131  139 1   
   139  132  136 1   
   140  140  141 1   
   141  140  149 1   
   142  141  142 1   
   143  141  144 1   
   144  141  150 1   
   145  142  143 2   
   146  142  162 1   
   147  144  145 1   
   148  144  151 1   
   149  144  152 1   
   150  145  146 1   
   151  145  153 1   
   152  145  154 1   
   153  146  147 1   
   154  146  155 1   
   155  146  156 1   
   156  147  148 1   
   157  147  157 1   
   158  147  158 1   
   159  148  159 1   
   160  148  160 1   
   161  148  161 1   
   162  162  163 1   
   163  162  171 1   
   164  163  164 1   
   165  163  166 1   
   166  163  172 1   
   167  164  165 2   
   168  164  177 1   
   169  166  167 1   
   170  166  173 1   
   171  166  174 1   
   172  167  168 1   
   173  167  175 1   
   174  167  176 1   
   175  168  169 1   
   176  168  170 1   
   177  177  178 1   
   178  177  182 1   
   179  178  179 1   
   180  178  180 1   
   181  178  181 1   
   182  184  185 1   
   183  184  186 1   
@<TRIPOS>SUBSTRUCTURE
     1 MOL         1 TEMP              0 ****  ****    0 ROOT
