@<TRIPOS>MOLECULE
MOL
  188   182     1     0     0
SMALL
resp


@<TRIPOS>ATOM
      1 C1         -6.2870   -1.8890    2.8830 c3        1 MOL     -0.436354
      2 C2         -6.8330   -1.8150    1.4830 c         1 MOL      0.785593
      3 O1         -6.1380   -1.3340    0.5910 o         1 MOL     -0.548926
      4 H1         -5.2200   -2.1120    2.8450 hc        1 MOL      0.095811
      5 H2         -6.4400   -0.9330    3.3840 hc        1 MOL      0.095811
      6 H3         -6.8020   -2.6750    3.4340 hc        1 MOL      0.095811
      7 N1         -8.0790   -2.2040    1.3300 n         1 MOL     -0.615221
      8 C3         -8.8320   -1.8980    0.0840 c3        1 MOL      0.269460
      9 C4         -8.6790   -0.5130   -0.5610 c         1 MOL      0.509956
     10 O2         -8.5180   -0.3950   -1.7760 o         1 MOL     -0.491272
     11 C5         -8.5890   -3.0770   -0.8980 c3        1 MOL     -0.290150
     12 C6         -9.0670   -4.4280   -0.3480 c         1 MOL      0.728635
     13 O3         -8.5490   -5.4670   -0.8660 o         1 MOL     -0.680170
     14 O4         -9.8800   -4.4690    0.5630 o         1 MOL     -0.680170
     15 H4         -8.4350   -2.8120    2.0520 hn        1 MOL      0.320364
     16 H5         -9.8810   -1.9610    0.3800 h1        1 MOL     -0.037269
     17 H6         -7.5410   -3.0470   -1.1790 hc        1 MOL      0.076474
     18 H7         -9.2110   -2.7880   -1.7510 hc        1 MOL      0.076474
     19 N2         -8.6670    0.4910    0.3320 n         1 MOL     -0.569004
     20 C7         -8.5390    1.9130   -0.1100 c3        1 MOL      0.037615
     21 C8         -7.1010    2.3860   -0.5240 c         1 MOL      0.589057
     22 O5         -6.9250    3.5610   -0.8370 o         1 MOL     -0.607767
     23 C9         -9.1930    2.8000    0.9780 c3        1 MOL     -0.123466
     24 C10       -10.6830    2.4390    1.2150 c3        1 MOL      0.179845
     25 C11       -11.1640    3.3600    2.2880 c3        1 MOL     -0.077283
     26 C12       -12.6420    3.1530    2.3770 c3        1 MOL     -0.118285
     27 N3        -12.9910    1.7790    2.5930 n4        1 MOL     -0.143411
     28 H8         -8.8900    0.2640    1.2950 hn        1 MOL      0.280649
     29 H9         -9.0700    2.0570   -1.0550 h1        1 MOL      0.095528
     30 H10        -9.1520    3.8620    0.7520 hc        1 MOL      0.058201
     31 H11        -8.6310    2.7600    1.9100 hc        1 MOL      0.058201
     32 H12       -10.8260    1.3920    1.5150 hc        1 MOL     -0.020394
     33 H13       -11.2750    2.5640    0.3070 hc        1 MOL     -0.020394
     34 H14       -10.8930    4.3810    1.9980 hc        1 MOL      0.049363
     35 H15       -10.6690    3.0650    3.2130 hc        1 MOL      0.049363
     36 H16       -13.1770    3.4780    1.4800 hx        1 MOL      0.117952
     37 H17       -12.9940    3.7200    3.2370 hx        1 MOL      0.117952
     38 H18       -12.2400    1.3060    3.0770 hn        1 MOL      0.223687
     39 H19       -13.7810    1.6650    3.2080 hn        1 MOL      0.223687
     40 H20       -13.3110    1.2360    1.8060 hn        1 MOL      0.223687
     41 N4         -6.1530    1.4800   -0.4760 n         1 MOL     -0.347051
     42 C13        -4.7330    1.8780   -0.5920 c3        1 MOL      0.051470
     43 C14        -4.2940    2.1460   -1.9890 c         1 MOL      0.633334
     44 O6         -4.4580    1.1960   -2.7750 o         1 MOL     -0.479835
     45 C15        -3.8580    0.8420    0.0970 c3        1 MOL     -0.352402
     46 C16        -2.4070    1.2410    0.1040 c         1 MOL      0.798348
     47 O7         -1.8980    1.7900    1.0910 o         1 MOL     -0.716951
     48 O8         -1.7330    1.2070   -0.9580 o         1 MOL     -0.716951
     49 H21        -6.4050    0.5510   -0.1510 hn        1 MOL      0.225292
     50 H22        -4.6110    2.8030   -0.0410 h1        1 MOL      0.023474
     51 H23        -3.8180   -0.1000   -0.4570 hc        1 MOL      0.088731
     52 H24        -4.1810    0.7330    1.1300 hc        1 MOL      0.088731
     53 N5         -3.6910    3.3160   -2.2690 n         1 MOL     -0.429333
     54 C17        -3.3980    3.7110   -3.6580 c3        1 MOL     -0.041372
     55 C18        -2.5110    2.6850   -4.3990 c         1 MOL      0.520269
     56 O9         -2.6800    2.6000   -5.6540 o         1 MOL     -0.526548
     57 H25        -3.4720    4.0060   -1.5680 hn        1 MOL      0.321327
     58 H26        -2.8550    4.6550   -3.5720 h1        1 MOL      0.075181
     59 H27        -4.3120    3.9750   -4.1790 h1        1 MOL      0.075181
     60 N6         -1.7080    1.8010   -3.6980 n         1 MOL     -0.404291
     61 C19        -0.9650    0.7460   -4.3910 c3        1 MOL      0.054754
     62 C20        -1.3270   -0.6460   -3.7920 c         1 MOL      0.484127
     63 O10        -0.5980   -1.5820   -3.8670 o         1 MOL     -0.563862
     64 C21         0.5780    1.0330   -4.3910 c3        1 MOL     -0.317010
     65 C22         1.3310    1.1500   -3.1090 c         1 MOL      0.588231
     66 N7          2.4060    0.3460   -2.9670 n         1 MOL     -0.598224
     67 O11         0.9590    1.7930   -2.1310 o         1 MOL     -0.601966
     68 H28        -1.8040    1.7040   -2.6980 hn        1 MOL      0.151189
     69 H29        -1.1950    0.6930   -5.4550 h1        1 MOL      0.123741
     70 H30         0.8400    1.8810   -5.0210 hc        1 MOL      0.117513
     71 H31         1.1710    0.2900   -4.9200 hc        1 MOL      0.117513
     72 H32         2.7080   -0.2480   -3.7300 hn        1 MOL      0.299439
     73 H33         2.8130    0.2480   -2.0410 hn        1 MOL      0.299439
     74 N8         -2.4710   -0.7840   -3.1470 n         1 MOL     -0.136609
     75 C23        -3.0710   -2.1100   -2.7280 c3        1 MOL     -0.294100
     76 C24        -2.5600   -2.6890   -1.4050 c         1 MOL      0.594740
     77 O12        -3.0310   -3.7090   -0.9650 o         1 MOL     -0.517057
     78 H34        -2.9870    0.0610   -2.9360 hn        1 MOL      0.140524
     79 H35        -3.0010   -2.8180   -3.5540 h1        1 MOL      0.161045
     80 H36        -4.1340   -2.0280   -2.4900 h1        1 MOL      0.161045
     81 N9         -1.7520   -1.8780   -0.6740 n         1 MOL     -0.452128
     82 C25        -1.1170   -2.2040    0.5960 c3        1 MOL     -0.059234
     83 C26         0.2930   -1.5460    0.6790 c         1 MOL      0.339899
     84 O13         0.4310   -0.3500    0.4420 o         1 MOL     -0.427253
     85 C27        -2.0900   -1.8330    1.7670 c3        1 MOL     -0.267455
     86 C28        -1.4230   -1.8990    3.1510 ca        1 MOL     -0.045000
     87 C29        -0.7680   -3.0430    3.6530 ca        1 MOL     -0.055012
     88 C30        -1.4590   -0.7260    3.9510 ca        1 MOL     -0.055012
     89 C31        -0.2780   -3.0490    4.9840 ca        1 MOL     -0.328630
     90 C32        -0.9180   -0.7010    5.2600 ca        1 MOL     -0.328630
     91 C33        -0.3500   -1.8810    5.7400 ca        1 MOL      0.404910
     92 O14         0.1580   -1.9190    6.9660 oh        1 MOL     -0.475979
     93 H37        -1.5630   -1.0130   -1.1730 hn        1 MOL      0.348316
     94 H38        -0.9500   -3.2730    0.6740 h1        1 MOL      0.104381
     95 H39        -2.9000   -2.5470    1.6540 hc        1 MOL      0.178262
     96 H40        -2.4960   -0.8330    1.6270 hc        1 MOL      0.178262
     97 H41        -0.7270   -3.9240    3.0270 ha        1 MOL      0.107058
     98 H42        -1.9080    0.1700    3.5460 ha        1 MOL      0.107058
     99 H43         0.1030   -3.9710    5.3970 ha        1 MOL      0.168519
    100 H44        -0.9650    0.2050    5.8410 ha        1 MOL      0.168519
    101 H45         0.3060   -1.0340    7.3050 ho        1 MOL      0.356765
    102 N10         1.3720   -2.3120    1.0470 n         1 MOL     -0.180759
    103 C34         2.7900   -1.8200    1.0640 c3        1 MOL     -0.073075
    104 C35         3.5000   -1.9130   -0.2340 c         1 MOL      0.491709
    105 O15         4.2260   -1.0230   -0.6510 o         1 MOL     -0.578447
    106 C36         3.4600   -2.4540    2.2250 c3        1 MOL      0.280924
    107 C37         2.9930   -1.7050    3.5120 c3        1 MOL     -0.014120
    108 C38         5.0330   -2.2890    2.1410 c3        1 MOL     -0.253173
    109 C39         3.5960   -2.3970    4.7290 c3        1 MOL     -0.182495
    110 H46         1.2880   -3.3170    1.1110 hn        1 MOL      0.193376
    111 H47         2.6810   -0.7640    1.2830 h1        1 MOL     -0.018752
    112 H48         3.2890   -3.5310    2.2390 hc        1 MOL     -0.045455
    113 H49         1.9190   -1.8770    3.5920 hc        1 MOL     -0.003359
    114 H50         3.2630   -0.6540    3.5180 hc        1 MOL     -0.003359
    115 H51         5.2970   -2.9200    1.2820 hc        1 MOL      0.062359
    116 H52         5.2960   -1.2550    1.9660 hc        1 MOL      0.062359
    117 H53         5.5100   -2.7270    3.0090 hc        1 MOL      0.062359
    118 H54         4.6120   -2.0500    4.8730 hc        1 MOL      0.051928
    119 H55         3.0560   -2.1310    5.6380 hc        1 MOL      0.051928
    120 H56         3.5330   -3.4870    4.6230 hc        1 MOL      0.051928
    121 N11         3.1850   -2.9690   -0.9480 n         1 MOL     -0.237015
    122 C40         3.6820   -3.0480   -2.3120 c3        1 MOL     -0.197383
    123 C41         5.2280   -3.0210   -2.5230 c         1 MOL      0.639419
    124 O16         5.7800   -2.5540   -3.5180 o         1 MOL     -0.530562
    125 C42         3.1490   -4.2180   -3.1220 c3        1 MOL      0.079141
    126 O17         3.4120   -5.4010   -2.3760 oh        1 MOL     -0.631821
    127 H57         2.4880   -3.6410   -0.6530 hn        1 MOL      0.261989
    128 H58         3.2780   -2.1240   -2.7270 h1        1 MOL      0.101769
    129 H59         3.7610   -4.2540   -4.0120 h1        1 MOL      0.079361
    130 H60         2.0950   -4.1470   -3.3750 h1        1 MOL      0.079361
    131 H61         2.9860   -6.1170   -2.8470 ho        1 MOL      0.434401
    132 N12         5.8890   -3.5400   -1.4820 n         1 MOL     -0.405717
    133 C43         7.3080   -3.6000   -1.2080 c3        1 MOL      0.221242
    134 C44         8.0230   -2.2160   -1.3690 c         1 MOL      0.377144
    135 O18         9.2390   -2.2380   -1.2150 o         1 MOL     -0.471290
    136 C45         7.8760   -4.7360   -2.0640 c3        1 MOL     -0.533661
    137 H62         5.3490   -4.0130   -0.7700 hn        1 MOL      0.265988
    138 H63         7.4650   -3.9340   -0.1900 h1        1 MOL      0.067428
    139 H64         8.9550   -4.6870   -1.9540 hc        1 MOL      0.155711
    140 H65         7.4810   -5.6650   -1.6490 hc        1 MOL      0.155711
    141 H66         7.5820   -4.5600   -3.1060 hc        1 MOL      0.155711
    142 N13         7.3260   -1.0910   -1.5780 n         1 MOL     -0.410582
    143 C46         7.9180    0.1970   -1.5930 c3        1 MOL      0.304244
    144 C47         8.3900    0.7790   -0.2710 c         1 MOL      0.390562
    145 O19         7.8610    0.4290    0.8260 o         1 MOL     -0.466773
    146 C48         6.9240    1.1710   -2.3270 c3        1 MOL     -0.205857
    147 H67         6.3440   -1.0930   -1.8140 hn        1 MOL      0.257930
    148 H68         8.8720    0.0930   -2.1160 h1        1 MOL     -0.002691
    149 H69         7.1720    1.2180   -3.3930 hc        1 MOL      0.053468
    150 H70         5.8940    0.8420   -2.2270 hc        1 MOL      0.053468
    151 H71         6.9220    2.2030   -1.9680 hc        1 MOL      0.053468
    152 N14         9.2970    1.7290   -0.3050 n         1 MOL     -0.482147
    153 C49         9.8250    2.3500    0.9590 c3        1 MOL     -0.053073
    154 C50        10.4180    1.5110    2.0550 c         1 MOL      0.484211
    155 O20        10.6080    1.9260    3.1580 o         1 MOL     -0.507401
    156 C51         8.8740    3.4640    1.4110 c3        1 MOL      0.463307
    157 C52         8.4100    4.5160    0.4900 c3        1 MOL     -0.387989
    158 C53         7.5270    5.5950    1.2400 c         1 MOL      0.665064
    159 O21         8.1300    6.5990    1.7440 o         1 MOL     -0.669872
    160 O22         6.2820    5.4530    1.4030 o         1 MOL     -0.669872
    161 H72         9.5790    2.1470   -1.1750 hn        1 MOL      0.306986
    162 H73        10.6570    2.9950    0.6850 h1        1 MOL      0.059112
    163 H74         9.2950    3.9350    2.3050 hc        1 MOL     -0.073281
    164 H75         7.9770    2.9450    1.7750 hc        1 MOL     -0.073281
    165 H76         7.9170    4.0810   -0.3820 hc        1 MOL      0.040561
    166 H77         9.3180    4.9310    0.0530 hc        1 MOL      0.040561
    167 N15        10.7360    0.2930    1.7270 n         1 MOL     -0.333475
    168 C54        10.8110   -0.7820    2.7750 c3        1 MOL     -0.144160
    169 H78        11.8080   -0.7920    3.2140 h1        1 MOL      0.091148
    170 H79        10.0740   -0.5850    3.5530 h1        1 MOL      0.091148
    171 H80        10.6060   -1.7510    2.3170 h1        1 MOL      0.091148
    172 H81        10.5520   -0.0310    0.7930 hn        1 MOL      0.232153
    173 Ca1         0.5940    2.2230    0.4280 Ca        1 MOL      1.803768
    174 O23         3.2310    1.4500   -0.3700 oh        1 MOL     -0.852637
    175 H82         3.6850    2.2250   -0.6980 ho        1 MOL      0.422020
    176 H83         3.9300    0.8590   -0.0780 ho        1 MOL      0.422020
    177 O24         1.3150    1.2920    2.7260 oh        1 MOL     -0.852637
    178 H84         2.2290    1.4990    2.9170 ho        1 MOL      0.422020
    179 H85         1.1230    0.5220    3.2580 ho        1 MOL      0.422020
    180 O25        -0.8680    4.4070   -0.9150 oh        1 MOL     -0.852637
    181 H86        -0.2540    4.5280   -1.6450 ho        1 MOL      0.422020
    182 H87        -1.5010    5.1230   -1.0060 ho        1 MOL      0.422020
    183 O26         2.2420    4.2700   -0.1950 oh        1 MOL     -0.852637
    184 H88         2.4510    4.5810   -1.0760 ho        1 MOL      0.422020
    185 H89         2.6640    4.9040    0.3910 ho        1 MOL      0.422020
    186 O27         0.5470    4.0420    2.3640 oh        1 MOL     -0.852637
    187 H90         0.1220    4.8880    2.4260 ho        1 MOL      0.422020
    188 H91         1.4440    4.1980    2.6880 ho        1 MOL      0.422020
@<TRIPOS>BOND
     1    1    2 1   
     2    1    4 1   
     3    1    5 1   
     4    1    6 1   
     5    2    3 2   
     6    2    7 1   
     7    7    8 1   
     8    7   15 1   
     9    8    9 1   
    10    8   11 1   
    11    8   16 1   
    12    9   10 2   
    13    9   19 1   
    14   11   12 1   
    15   11   17 1   
    16   11   18 1   
    17   12   13 1   
    18   12   14 1   
    19   19   20 1   
    20   19   28 1   
    21   20   21 1   
    22   20   23 1   
    23   20   29 1   
    24   21   22 2   
    25   21   41 1   
    26   23   24 1   
    27   23   30 1   
    28   23   31 1   
    29   24   25 1   
    30   24   32 1   
    31   24   33 1   
    32   25   26 1   
    33   25   34 1   
    34   25   35 1   
    35   26   27 1   
    36   26   36 1   
    37   26   37 1   
    38   27   38 1   
    39   27   39 1   
    40   27   40 1   
    41   41   42 1   
    42   41   49 1   
    43   42   43 1   
    44   42   45 1   
    45   42   50 1   
    46   43   44 2   
    47   43   53 1   
    48   45   46 1   
    49   45   51 1   
    50   45   52 1   
    51   46   47 1   
    52   46   48 1   
    53   53   54 1   
    54   53   57 1   
    55   54   55 1   
    56   54   58 1   
    57   54   59 1   
    58   55   56 2   
    59   55   60 1   
    60   60   61 1   
    61   60   68 1   
    62   61   62 1   
    63   61   64 1   
    64   61   69 1   
    65   62   63 2   
    66   62   74 1   
    67   64   65 1   
    68   64   70 1   
    69   64   71 1   
    70   65   66 1   
    71   65   67 2   
    72   66   72 1   
    73   66   73 1   
    74   74   75 1   
    75   74   78 1   
    76   75   76 1   
    77   75   79 1   
    78   75   80 1   
    79   76   77 2   
    80   76   81 1   
    81   81   82 1   
    82   81   93 1   
    83   82   83 1   
    84   82   85 1   
    85   82   94 1   
    86   83   84 2   
    87   83  102 1   
    88   85   86 1   
    89   85   95 1   
    90   85   96 1   
    91   86   87 ar  
    92   86   88 ar  
    93   87   89 ar  
    94   87   97 1   
    95   88   90 ar  
    96   88   98 1   
    97   89   91 ar  
    98   89   99 1   
    99   90   91 ar  
   100   90  100 1   
   101   91   92 1   
   102   92  101 1   
   103  102  103 1   
   104  102  110 1   
   105  103  104 1   
   106  103  106 1   
   107  103  111 1   
   108  104  105 2   
   109  104  121 1   
   110  106  107 1   
   111  106  108 1   
   112  106  112 1   
   113  107  109 1   
   114  107  113 1   
   115  107  114 1   
   116  108  115 1   
   117  108  116 1   
   118  108  117 1   
   119  109  118 1   
   120  109  119 1   
   121  109  120 1   
   122  121  122 1   
   123  121  127 1   
   124  122  123 1   
   125  122  125 1   
   126  122  128 1   
   127  123  124 2   
   128  123  132 1   
   129  125  126 1   
   130  125  129 1   
   131  125  130 1   
   132  126  131 1   
   133  132  133 1   
   134  132  137 1   
   135  133  134 1   
   136  133  136 1   
   137  133  138 1   
   138  134  135 2   
   139  134  142 1   
   140  136  139 1   
   141  136  140 1   
   142  136  141 1   
   143  142  143 1   
   144  142  147 1   
   145  143  144 1   
   146  143  146 1   
   147  143  148 1   
   148  144  145 2   
   149  144  152 1   
   150  146  149 1   
   151  146  150 1   
   152  146  151 1   
   153  152  153 1   
   154  152  161 1   
   155  153  154 1   
   156  153  156 1   
   157  153  162 1   
   158  154  155 2   
   159  154  167 1   
   160  156  157 1   
   161  156  163 1   
   162  156  164 1   
   163  157  158 1   
   164  157  165 1   
   165  157  166 1   
   166  158  159 1   
   167  158  160 1   
   168  167  168 1   
   169  167  172 1   
   170  168  169 1   
   171  168  170 1   
   172  168  171 1   
   173  174  175 1   
   174  174  176 1   
   175  177  178 1   
   176  177  179 1   
   177  180  181 1   
   178  180  182 1   
   179  183  184 1   
   180  183  185 1   
   181  186  187 1   
   182  186  188 1   
@<TRIPOS>SUBSTRUCTURE
     1 MOL         1 TEMP              0 ****  ****    0 ROOT
