@<TRIPOS>MOLECULE
MOL
  187   181     1     0     0
SMALL
resp


@<TRIPOS>ATOM
      1 C1         -4.7730    0.2930   -4.7490 c3        1 MOL     -0.303508
      2 C2         -5.6300    1.2260   -3.9640 c         1 MOL      0.638152
      3 O1         -5.1790    2.2270   -3.3680 o         1 MOL     -0.566451
      4 H1         -5.2180    0.1310   -5.7310 hc        1 MOL      0.079313
      5 H2         -3.7790    0.7240   -4.8670 hc        1 MOL      0.079313
      6 H3         -4.6960   -0.6590   -4.2240 hc        1 MOL      0.079313
      7 N1         -6.9610    0.9780   -4.0480 n         1 MOL     -0.530595
      8 C3         -8.0820    1.8300   -3.4780 c3        1 MOL      0.230474
      9 C4         -8.2290    1.5400   -1.9490 c         1 MOL      0.627830
     10 O2         -9.1430    0.8960   -1.4830 o         1 MOL     -0.552023
     11 C5         -9.3950    1.5260   -4.1910 c3        1 MOL     -0.330779
     12 C6        -10.5150    2.5670   -3.9660 c         1 MOL      0.810738
     13 O3        -11.6130    2.3650   -4.3860 o         1 MOL     -0.745215
     14 O4        -10.2250    3.6020   -3.3450 o         1 MOL     -0.745215
     15 H4         -7.2750    0.2230   -4.6430 hn        1 MOL      0.278143
     16 H5         -7.8250    2.8850   -3.6270 h1        1 MOL      0.009740
     17 H6         -9.6920    0.5630   -3.7910 hc        1 MOL      0.036422
     18 H7         -9.2500    1.4690   -5.2730 hc        1 MOL      0.036422
     19 N2         -7.1960    1.9330   -1.2530 n         1 MOL     -0.801578
     20 C7         -7.0260    1.8540    0.2400 c3        1 MOL      0.705872
     21 C8         -5.9920    0.7090    0.6810 c         1 MOL      0.306105
     22 O5         -5.0510    0.3210   -0.0640 o         1 MOL     -0.491724
     23 C9         -6.5480    3.2250    0.7150 c3        1 MOL     -0.244367
     24 H8         -6.4630    2.3990   -1.7780 hn        1 MOL      0.335319
     25 H9         -8.0020    1.5750    0.6200 h1        1 MOL     -0.088811
     26 H10        -6.2170    3.0870    1.7430 hc        1 MOL      0.041685
     27 H11        -5.7480    3.5450    0.0420 hc        1 MOL      0.041685
     28 H12        -7.3750    3.9340    0.7380 hc        1 MOL      0.041685
     29 N3         -6.0730    0.3040    1.9010 n         1 MOL     -0.482745
     30 C10        -5.2610   -0.8790    2.4200 c3        1 MOL      0.201844
     31 C11        -4.5260   -0.4660    3.7000 c         1 MOL      0.543917
     32 O6         -5.1780    0.3420    4.4140 o         1 MOL     -0.562848
     33 C12        -6.2050   -2.0970    2.7270 c3        1 MOL     -0.042484
     34 C13        -5.4780   -3.4560    2.8330 c         1 MOL      0.638876
     35 O7         -4.2290   -3.5310    2.5750 o         1 MOL     -0.723812
     36 O8         -6.2090   -4.5030    3.0060 o         1 MOL     -0.723812
     37 H13        -6.7490    0.6940    2.5440 hn        1 MOL      0.256397
     38 H14        -4.4710   -1.1290    1.7140 h1        1 MOL      0.016633
     39 H15        -6.9520   -2.2830    1.9550 hc        1 MOL      0.022912
     40 H16        -6.8740   -1.9130    3.5650 hc        1 MOL      0.022912
     41 N4         -3.3380   -0.9850    4.0020 n         1 MOL     -0.369520
     42 C14        -2.6380   -0.8690    5.2960 c3        1 MOL     -0.303577
     43 C15        -1.6990    0.4070    5.4140 c         1 MOL      0.605221
     44 O9         -1.2390    0.6840    6.5270 o         1 MOL     -0.580936
     45 H17        -2.9090   -1.6850    3.4050 hn        1 MOL      0.308947
     46 H18        -2.0300   -1.7600    5.4380 h1        1 MOL      0.140003
     47 H19        -3.4380   -0.7950    6.0360 h1        1 MOL      0.140003
     48 N5         -1.2450    0.9670    4.3380 n         1 MOL     -0.405657
     49 C16        -0.0230    1.8930    4.3590 c3        1 MOL      0.078055
     50 C17        -0.1550    3.2930    3.6460 c         1 MOL      0.467188
     51 O10        -1.0010    3.4260    2.7650 o         1 MOL     -0.471821
     52 C18         1.0270    1.0270    3.6600 c3        1 MOL      0.121972
     53 C19         1.6260   -0.1190    4.4460 c         1 MOL      0.482009
     54 N6          2.8000   -0.6440    4.1850 n         1 MOL     -0.718100
     55 O11         0.9750   -0.5330    5.4210 o         1 MOL     -0.503001
     56 H20        -1.5870    0.6770    3.4320 hn        1 MOL      0.254544
     57 H21         0.0900    2.1310    5.4120 h1        1 MOL      0.054137
     58 H22         1.8680    1.6690    3.4050 hc        1 MOL     -0.004278
     59 H23         0.5820    0.6280    2.7460 hc        1 MOL     -0.004278
     60 H24         3.4910   -0.0910    3.6930 hn        1 MOL      0.342583
     61 H25         2.9950   -1.4830    4.7130 hn        1 MOL      0.342583
     62 N7          0.7750    4.2350    3.8490 n         1 MOL     -0.452161
     63 C20         0.8030    5.4640    3.0630 c3        1 MOL     -0.029352
     64 C21         2.1990    5.6370    2.4120 c         1 MOL      0.543431
     65 O12         2.9710    4.6810    2.4780 o         1 MOL     -0.495832
     66 H26         1.5530    4.0050    4.4450 hn        1 MOL      0.268886
     67 H27         0.6810    6.3170    3.7390 h1        1 MOL      0.081203
     68 H28         0.0800    5.5410    2.2530 h1        1 MOL      0.081203
     69 N8          2.5170    6.7780    1.8270 n         1 MOL     -0.437751
     70 C22         3.8030    6.9720    1.1000 c3        1 MOL     -0.335736
     71 C23         3.9200    6.0130   -0.0700 c         1 MOL      0.463318
     72 O13         4.9850    5.5070   -0.4220 o         1 MOL     -0.556742
     73 C24         3.9430    8.4770    0.7650 c3        1 MOL      0.463974
     74 C25         3.1040    8.7850   -0.4340 c3        1 MOL     -0.333223
     75 O14         3.8510    9.2990    1.9340 oh        1 MOL     -0.602824
     76 H29         1.8510    7.5290    1.7920 hn        1 MOL      0.252710
     77 H30         4.5720    6.7920    1.8590 h1        1 MOL      0.181944
     78 H31         4.9820    8.6610    0.4740 h1        1 MOL      0.038484
     79 H32         2.9320    9.2410    2.1880 ho        1 MOL      0.371994
     80 H33         2.1210    8.3680   -0.2560 hc        1 MOL      0.078130
     81 H34         3.0350    9.8700   -0.5530 hc        1 MOL      0.078130
     82 H35         3.5680    8.3960   -1.3350 hc        1 MOL      0.078130
     83 N9          2.8090    5.5460   -0.6190 n         1 MOL     -0.036233
     84 C26         2.6290    4.4350   -1.6040 c3        1 MOL     -0.140257
     85 C27         1.9890    3.2330   -0.8790 c         1 MOL      0.477081
     86 O15         0.9750    3.4260   -0.2650 o         1 MOL     -0.477350
     87 C28         1.8860    4.9590   -2.8880 c3        1 MOL      0.317977
     88 C29         2.4480    6.2480   -3.4740 c3        1 MOL     -0.226854
     89 C30         1.8050    3.8820   -4.0230 c3        1 MOL     -0.104122
     90 C31         3.9190    6.2970   -3.7720 c3        1 MOL      0.077201
     91 H36         2.0110    6.1260   -0.4160 hn        1 MOL      0.144204
     92 H37         3.6020    4.0600   -1.9020 h1        1 MOL      0.078901
     93 H38         0.8590    5.2020   -2.6380 hc        1 MOL     -0.031181
     94 H39         2.1480    6.9860   -2.7320 hc        1 MOL      0.042711
     95 H40         1.9320    6.4640   -4.4100 hc        1 MOL      0.042711
     96 H41         1.2370    3.0420   -3.6170 hc        1 MOL      0.017322
     97 H42         1.4020    4.2770   -4.9520 hc        1 MOL      0.017322
     98 H43         2.8600    3.5980   -4.1350 hc        1 MOL      0.017322
     99 H44         4.5450    6.4970   -2.9000 hc        1 MOL     -0.019577
    100 H45         4.2530    5.3190   -4.1230 hc        1 MOL     -0.019577
    101 H46         4.1530    7.0140   -4.5590 hc        1 MOL     -0.019577
    102 N10         2.5370    2.0650   -1.0950 n         1 MOL     -0.484731
    103 C32         1.9640    0.8470   -0.4470 c3        1 MOL      0.282303
    104 C33         3.0000   -0.1420    0.0520 c         1 MOL      0.462337
    105 O16         2.6630   -1.3130    0.2330 o         1 MOL     -0.522375
    106 C34         0.8890    0.1800   -1.4990 c3        1 MOL     -0.140893
    107 C35        -0.1620   -0.6480   -0.7780 c         1 MOL      0.714060
    108 O17        -0.1680   -0.6470    0.4930 o         1 MOL     -0.650548
    109 O18        -1.0220   -1.2290   -1.5050 o         1 MOL     -0.650548
    110 H47         3.3590    2.0170   -1.7000 hn        1 MOL      0.269442
    111 H48         1.5240    1.1480    0.5140 h1        1 MOL      0.015999
    112 H49         1.4460   -0.3480   -2.2690 hc        1 MOL      0.044055
    113 H50         0.3840    0.9790   -2.0320 hc        1 MOL      0.044055
    114 N11         4.2590    0.2640    0.1640 n         1 MOL     -0.474461
    115 C36         5.3480   -0.6490    0.2260 c3        1 MOL      0.239862
    116 C37         5.3120   -1.6900   -0.9780 c         1 MOL      0.217194
    117 O19         5.1620   -1.2760   -2.1320 o         1 MOL     -0.473859
    118 C38         6.6890    0.1530    0.2170 c3        1 MOL     -0.302760
    119 C39         7.8510   -0.8110    0.4610 ca        1 MOL      0.180709
    120 C40         8.1970   -1.0890    1.8020 ca        1 MOL     -0.239317
    121 C41         8.5160   -1.4410   -0.5790 ca        1 MOL     -0.239317
    122 C42         9.1300   -2.0770    2.0180 ca        1 MOL     -0.041323
    123 C43         9.5880   -2.3210   -0.3800 ca        1 MOL     -0.041323
    124 C44         9.9070   -2.6180    0.9840 ca        1 MOL     -0.172261
    125 H51         4.5170    1.2410    0.1290 hn        1 MOL      0.270472
    126 H52         5.2080   -1.2010    1.1610 h1        1 MOL      0.010537
    127 H53         6.6000    0.9150    0.9990 hc        1 MOL      0.112092
    128 H54         6.7320    0.6370   -0.7560 hc        1 MOL      0.112092
    129 H55         7.5870   -0.6580    2.5810 ha        1 MOL      0.134146
    130 H56         8.2660   -1.1710   -1.5930 ha        1 MOL      0.134146
    131 H57         9.2860   -2.2370    3.0750 ha        1 MOL      0.094552
    132 H58        10.2370   -2.8230   -1.0940 ha        1 MOL      0.094552
    133 H59        10.7300   -3.2790    1.2350 ha        1 MOL      0.107256
    134 N12         5.5280   -2.9670   -0.7890 n         1 MOL      0.039894
    135 C45         6.0740   -3.7710   -1.9330 c3        1 MOL      0.136988
    136 C46         5.0750   -4.2960   -2.9300 c         1 MOL      0.249943
    137 O20         5.3840   -5.2140   -3.7450 o         1 MOL     -0.503378
    138 C47         6.8520   -4.9280   -1.2410 c3        1 MOL     -0.247476
    139 C48         6.0230   -5.1320    0.0520 c3        1 MOL      0.054481
    140 C49         5.5820   -3.7100    0.5050 c3        1 MOL     -0.209316
    141 H60         6.8700   -3.2590   -2.4690 h1        1 MOL      0.065587
    142 H61         6.7580   -5.8020   -1.8920 hc        1 MOL      0.088424
    143 H62         7.8590   -4.5680   -1.0220 hc        1 MOL      0.088424
    144 H63         5.1220   -5.7280   -0.0550 hc        1 MOL      0.021229
    145 H64         6.5930   -5.5910    0.8550 hc        1 MOL      0.021229
    146 H65         4.6170   -3.6430    0.9940 h1        1 MOL      0.094864
    147 H66         6.4400   -3.3940    1.1120 h1        1 MOL      0.094864
    148 N13         3.7910   -3.8290   -2.8870 n         1 MOL     -0.129895
    149 C50         2.7250   -4.1000   -3.8500 c3        1 MOL     -0.108843
    150 C51         2.6640   -2.9550   -4.9040 c         1 MOL      0.389839
    151 O21         1.8230   -2.9790   -5.7830 o         1 MOL     -0.510293
    152 C52         1.3590   -4.0810   -3.0370 c3        1 MOL      0.089119
    153 C53         1.1600   -5.0540   -1.9070 c3        1 MOL     -0.064752
    154 C54        -0.1410   -4.8090   -1.1040 c         1 MOL      0.692852
    155 O22        -1.3130   -4.7760   -1.6100 o         1 MOL     -0.752809
    156 O23        -0.0550   -4.8230    0.1520 o         1 MOL     -0.752809
    157 H67         3.5090   -3.2650   -2.1020 hn        1 MOL      0.248961
    158 H68         2.7940   -5.0030   -4.4690 h1        1 MOL      0.108554
    159 H69         0.5490   -4.2370   -3.7500 hc        1 MOL      0.012347
    160 H70         1.2740   -3.0530   -2.6840 hc        1 MOL      0.012347
    161 H71         1.9940   -4.9550   -1.2140 hc        1 MOL     -0.008721
    162 H72         1.1880   -6.1090   -2.2090 hc        1 MOL     -0.008721
    163 N14         3.4900   -1.9050   -4.7600 n         1 MOL     -0.146987
    164 C55         3.5400   -0.7850   -5.7520 c3        1 MOL     -0.181940
    165 H73         4.5430   -0.3590   -5.7680 h1        1 MOL      0.082113
    166 H74         3.2920   -1.1640   -6.7430 h1        1 MOL      0.082113
    167 H75         2.8240   -0.0140   -5.4680 h1        1 MOL      0.082113
    168 H76         4.0820   -1.8810   -3.9530 hn        1 MOL      0.122792
    169 Ca1        -2.5720   -4.6650    1.0070 Ca        1 MOL      1.834342
    170 O24        -4.8080   -5.0350   -0.2120 oh        1 MOL     -0.877574
    171 H77        -4.9750   -4.6360   -1.0640 ho        1 MOL      0.421172
    172 H78        -5.4760   -5.7210   -0.1240 ho        1 MOL      0.421172
    173 O25        -2.0610   -7.2240    0.5830 oh        1 MOL     -0.877574
    174 H79        -2.7260   -7.7640    0.1610 ho        1 MOL      0.421172
    175 H80        -1.2670   -7.7560    0.5730 ho        1 MOL      0.421172
    176 O26        -1.2970   -5.3860    3.3410 oh        1 MOL     -0.877574
    177 H81        -0.9180   -6.2640    3.3510 ho        1 MOL      0.421172
    178 H82        -1.0440   -4.9950    4.1690 ho        1 MOL      0.421172
    179 O27        -4.2890   -6.4710    2.5720 oh        1 MOL     -0.877574
    180 H83        -5.0780   -6.0010    2.8540 ho        1 MOL      0.421172
    181 H84        -4.1350   -7.1180    3.2630 ho        1 MOL      0.421172
    182 O28        -1.0740   -2.5650    1.9940 oh        1 MOL     -0.877574
    183 H85        -0.9410   -1.9380    1.2900 ho        1 MOL      0.421172
    184 H86        -0.1810   -2.7970    2.2890 ho        1 MOL      0.421172
    185 O29        -3.0160   -2.4820   -0.4320 oh        1 MOL     -0.877574
    186 H87        -2.2960   -1.9740   -0.8000 ho        1 MOL      0.421172
    187 H88        -3.7990   -2.1340   -0.8450 ho        1 MOL      0.421172
@<TRIPOS>BOND
     1    1    2 1   
     2    1    4 1   
     3    1    5 1   
     4    1    6 1   
     5    2    3 2   
     6    2    7 1   
     7    7    8 1   
     8    7   15 1   
     9    8    9 1   
    10    8   11 1   
    11    8   16 1   
    12    9   10 2   
    13    9   19 1   
    14   11   12 1   
    15   11   17 1   
    16   11   18 1   
    17   12   13 1   
    18   12   14 1   
    19   19   20 1   
    20   19   24 1   
    21   20   21 1   
    22   20   23 1   
    23   20   25 1   
    24   21   22 2   
    25   21   29 1   
    26   23   26 1   
    27   23   27 1   
    28   23   28 1   
    29   29   30 1   
    30   29   37 1   
    31   30   31 1   
    32   30   33 1   
    33   30   38 1   
    34   31   32 2   
    35   31   41 1   
    36   33   34 1   
    37   33   39 1   
    38   33   40 1   
    39   34   35 1   
    40   34   36 1   
    41   41   42 1   
    42   41   45 1   
    43   42   43 1   
    44   42   46 1   
    45   42   47 1   
    46   43   44 2   
    47   43   48 1   
    48   48   49 1   
    49   48   56 1   
    50   49   50 1   
    51   49   52 1   
    52   49   57 1   
    53   50   51 2   
    54   50   62 1   
    55   52   53 1   
    56   52   58 1   
    57   52   59 1   
    58   53   54 1   
    59   53   55 2   
    60   54   60 1   
    61   54   61 1   
    62   62   63 1   
    63   62   66 1   
    64   63   64 1   
    65   63   67 1   
    66   63   68 1   
    67   64   65 2   
    68   64   69 1   
    69   69   70 1   
    70   69   76 1   
    71   70   71 1   
    72   70   73 1   
    73   70   77 1   
    74   71   72 2   
    75   71   83 1   
    76   73   74 1   
    77   73   75 1   
    78   73   78 1   
    79   74   80 1   
    80   74   81 1   
    81   74   82 1   
    82   75   79 1   
    83   83   84 1   
    84   83   91 1   
    85   84   85 1   
    86   84   87 1   
    87   84   92 1   
    88   85   86 2   
    89   85  102 1   
    90   87   88 1   
    91   87   89 1   
    92   87   93 1   
    93   88   90 1   
    94   88   94 1   
    95   88   95 1   
    96   89   96 1   
    97   89   97 1   
    98   89   98 1   
    99   90   99 1   
   100   90  100 1   
   101   90  101 1   
   102  102  103 1   
   103  102  110 1   
   104  103  104 1   
   105  103  106 1   
   106  103  111 1   
   107  104  105 2   
   108  104  114 1   
   109  106  107 1   
   110  106  112 1   
   111  106  113 1   
   112  107  108 1   
   113  107  109 1   
   114  114  115 1   
   115  114  125 1   
   116  115  116 1   
   117  115  118 1   
   118  115  126 1   
   119  116  117 2   
   120  116  134 1   
   121  118  119 1   
   122  118  127 1   
   123  118  128 1   
   124  119  120 ar  
   125  119  121 ar  
   126  120  122 ar  
   127  120  129 1   
   128  121  123 ar  
   129  121  130 1   
   130  122  124 ar  
   131  122  131 1   
   132  123  124 ar  
   133  123  132 1   
   134  124  133 1   
   135  134  135 1   
   136  134  140 1   
   137  135  136 1   
   138  135  138 1   
   139  135  141 1   
   140  136  137 2   
   141  136  148 1   
   142  138  139 1   
   143  138  142 1   
   144  138  143 1   
   145  139  140 1   
   146  139  144 1   
   147  139  145 1   
   148  140  146 1   
   149  140  147 1   
   150  148  149 1   
   151  148  157 1   
   152  149  150 1   
   153  149  152 1   
   154  149  158 1   
   155  150  151 2   
   156  150  163 1   
   157  152  153 1   
   158  152  159 1   
   159  152  160 1   
   160  153  154 1   
   161  153  161 1   
   162  153  162 1   
   163  154  155 1   
   164  154  156 1   
   165  163  164 1   
   166  163  168 1   
   167  164  165 1   
   168  164  166 1   
   169  164  167 1   
   170  170  171 1   
   171  170  172 1   
   172  173  174 1   
   173  173  175 1   
   174  176  177 1   
   175  176  178 1   
   176  179  180 1   
   177  179  181 1   
   178  182  183 1   
   179  182  184 1   
   180  185  186 1   
   181  185  187 1   
@<TRIPOS>SUBSTRUCTURE
     1 MOL         1 TEMP              0 ****  ****    0 ROOT
