@<TRIPOS>MOLECULE
MOL
  175   173     1     0     0
SMALL
resp


@<TRIPOS>ATOM
      1 C1         -6.6490    7.8850    1.0880 c3        1 MOL     -0.389016
      2 C2         -7.6640    6.9610    0.4580 c         1 MOL      0.738730
      3 O1         -7.9550    7.0570   -0.7290 o         1 MOL     -0.604137
      4 H1         -6.8520    7.9730    2.1550 hc        1 MOL      0.097123
      5 H2         -5.6480    7.4800    0.9400 hc        1 MOL      0.097123
      6 H3         -6.7160    8.8700    0.6240 hc        1 MOL      0.097123
      7 N1         -8.2170    5.8880    1.1480 n         1 MOL     -0.708176
      8 C3         -9.1410    4.8610    0.5300 c3        1 MOL      0.525615
      9 C4         -8.3720    3.7670   -0.3140 c         1 MOL      0.299566
     10 O2         -8.8820    2.7030   -0.6040 o         1 MOL     -0.502180
     11 C5        -10.0580    4.3270    1.6650 c3        1 MOL     -0.469778
     12 C6        -11.4760    3.9270    1.1210 c         1 MOL      0.797563
     13 O3        -12.1470    3.1490    1.8440 o         1 MOL     -0.742039
     14 O4        -11.9290    4.4110    0.0950 o         1 MOL     -0.742039
     15 H4         -7.7780    5.7170    2.0410 hn        1 MOL      0.293818
     16 H5         -9.8130    5.4570   -0.0770 h1        1 MOL      0.016540
     17 H6        -10.1660    5.1790    2.3340 hc        1 MOL      0.078547
     18 H7         -9.5640    3.4570    2.1120 hc        1 MOL      0.078547
     19 N2         -7.0600    3.9370   -0.6050 n         1 MOL     -0.414874
     20 C7         -6.2020    3.0560   -1.3160 c3        1 MOL      0.525655
     21 C8         -5.0980    2.5000   -0.4140 c         1 MOL      0.367068
     22 O5         -4.3550    3.2330    0.2260 o         1 MOL     -0.536244
     23 C9         -5.5470    3.7450   -2.5810 c3        1 MOL     -0.348605
     24 H8         -6.6400    4.7640   -0.1950 hn        1 MOL      0.191422
     25 H9         -6.7910    2.2410   -1.7250 h1        1 MOL     -0.007341
     26 H10        -4.8010    4.4930   -2.3230 hc        1 MOL      0.082601
     27 H11        -5.0140    2.9020   -3.0200 hc        1 MOL      0.082601
     28 H12        -6.3450    4.1140   -3.2220 hc        1 MOL      0.082601
     29 N3         -4.9520    1.1780   -0.3340 n         1 MOL     -0.379325
     30 C10        -5.5960    0.0360   -1.1320 c3        1 MOL     -0.060183
     31 C11        -5.6110   -1.2570   -0.3070 c         1 MOL      0.426380
     32 O6         -4.8010   -1.4550    0.6110 o         1 MOL     -0.524952
     33 C12        -4.7100   -0.2720   -2.3130 c3        1 MOL      0.003445
     34 C13        -3.2530   -0.5030   -2.0840 c         1 MOL      0.655267
     35 O7         -2.7670   -1.6460   -2.2310 o         1 MOL     -0.682478
     36 O8         -2.4740    0.4330   -1.9750 o         1 MOL     -0.682478
     37 H13        -4.1950    0.9060    0.2920 hn        1 MOL      0.275574
     38 H14        -6.6060    0.3360   -1.4350 h1        1 MOL      0.061398
     39 H15        -4.8380    0.4930   -3.0720 hc        1 MOL     -0.017149
     40 H16        -5.1290   -1.1930   -2.7070 hc        1 MOL     -0.017149
     41 N4         -6.5780   -2.0570   -0.6360 n         1 MOL     -0.268354
     42 C14        -6.8820   -3.4180   -0.0210 c3        1 MOL     -0.011812
     43 C15        -6.6550   -4.5790   -1.0780 c         1 MOL      0.488969
     44 O9         -7.5660   -4.9940   -1.7090 o         1 MOL     -0.557777
     45 H17        -7.2070   -1.6890   -1.3270 hn        1 MOL      0.286552
     46 H18        -7.9130   -3.3210    0.3130 h1        1 MOL      0.066631
     47 H19        -6.2890   -3.6480    0.8630 h1        1 MOL      0.066631
     48 N5         -5.4560   -5.0010   -1.3710 n         1 MOL     -0.346408
     49 C16        -4.1360   -4.4970   -1.0160 c3        1 MOL      0.023717
     50 C17        -3.6650   -4.9010    0.4100 c         1 MOL      0.379004
     51 O10        -3.3660   -6.0970    0.6660 o         1 MOL     -0.524674
     52 C18        -3.1760   -5.1110   -2.0660 c3        1 MOL     -0.390484
     53 C19        -1.7860   -4.5810   -1.9750 c         1 MOL      0.655152
     54 N6         -0.9230   -4.8020   -2.9740 n         1 MOL     -0.671220
     55 O11        -1.4330   -3.8700   -1.0290 o         1 MOL     -0.724372
     56 H20        -5.4750   -5.6940   -2.1120 hn        1 MOL      0.270929
     57 H21        -4.2490   -3.4200   -1.1230 h1        1 MOL      0.121517
     58 H22        -3.5170   -4.9940   -3.1010 hc        1 MOL      0.142238
     59 H23        -3.0430   -6.1690   -1.8030 hc        1 MOL      0.142238
     60 H24        -1.2270   -5.2890   -3.8050 hn        1 MOL      0.326334
     61 H25         0.0080   -4.4150   -2.9040 hn        1 MOL      0.326334
     62 N7         -3.6440   -4.0190    1.3870 n         1 MOL     -0.125767
     63 C20        -3.3420   -4.3980    2.8150 c3        1 MOL     -0.244317
     64 C21        -1.8700   -4.6040    3.0870 c         1 MOL      0.452454
     65 O12        -1.4490   -4.8000    4.2780 o         1 MOL     -0.573699
     66 H26        -3.7370   -3.0210    1.2540 hn        1 MOL      0.187822
     67 H27        -3.8700   -5.3190    3.0640 h1        1 MOL      0.125352
     68 H28        -3.6620   -3.6910    3.5790 h1        1 MOL      0.125352
     69 N8         -1.0210   -4.5580    2.0520 n         1 MOL     -0.171001
     70 C22         0.4230   -4.7530    2.1420 c3        1 MOL     -0.098836
     71 C23         1.2490   -3.5840    1.6790 c         1 MOL      0.256264
     72 O13         0.8910   -2.8310    0.7740 o         1 MOL     -0.455827
     73 C24         0.8950   -5.9690    1.2480 c3        1 MOL      0.395781
     74 C25         0.4620   -7.2250    1.9090 c3        1 MOL     -0.324794
     75 O14         0.4320   -5.9040   -0.1030 oh        1 MOL     -0.603084
     76 H29        -1.3820   -4.2330    1.1700 hn        1 MOL      0.378999
     77 H30         0.7360   -4.9450    3.1670 h1        1 MOL      0.067687
     78 H31         1.9810   -5.9880    1.2690 h1        1 MOL     -0.001316
     79 H32         0.8960   -5.2630   -0.6320 ho        1 MOL      0.398350
     80 H33         0.7720   -7.3530    2.9450 hc        1 MOL      0.075456
     81 H34        -0.6230   -7.2920    1.8830 hc        1 MOL      0.075456
     82 H35         0.8990   -8.0980    1.4160 hc        1 MOL      0.075456
     83 N9          2.4050   -3.4150    2.2940 n         1 MOL     -0.172841
     84 C26         3.3290   -2.3120    2.1350 c3        1 MOL      0.014291
     85 C27         4.2540   -2.7480    1.0110 c         1 MOL      0.303402
     86 O15         5.0270   -3.6840    1.1370 o         1 MOL     -0.536704
     87 C28         4.0270   -2.0460    3.4780 c3        1 MOL      0.118323
     88 C29         5.1710   -1.0430    3.2830 c3        1 MOL      0.042234
     89 C30         3.1320   -1.6520    4.6770 c3        1 MOL     -0.300304
     90 C31         4.6820    0.3370    2.8600 c3        1 MOL     -0.220445
     91 H36         2.6910   -4.0120    3.0540 hn        1 MOL      0.226526
     92 H37         2.8630   -1.3610    1.8830 h1        1 MOL      0.089821
     93 H38         4.5160   -2.9790    3.7520 hc        1 MOL     -0.013940
     94 H39         5.7970   -1.4110    2.4790 hc        1 MOL     -0.000737
     95 H40         5.8210   -1.0150    4.1550 hc        1 MOL     -0.000737
     96 H41         2.5020   -0.8100    4.3980 hc        1 MOL      0.075164
     97 H42         2.4370   -2.4040    5.0550 hc        1 MOL      0.075164
     98 H43         3.7160   -1.2810    5.5190 hc        1 MOL      0.075164
     99 H44         5.5180    1.0400    2.8070 hc        1 MOL      0.046770
    100 H45         4.2020    0.3600    1.8760 hc        1 MOL      0.046770
    101 H46         3.9840    0.7230    3.6040 hc        1 MOL      0.046770
    102 N10         4.1500   -2.1230   -0.1810 n         1 MOL     -0.083071
    103 C32         4.8100   -2.5170   -1.4690 c3        1 MOL      0.153565
    104 C33         5.8390   -1.4580   -1.8470 c         1 MOL      0.578602
    105 O16         6.5330   -1.7840   -2.7940 o         1 MOL     -0.553361
    106 C34         3.6520   -2.8200   -2.4380 c3        1 MOL     -0.256213
    107 C35         2.3900   -3.4510   -1.9800 c         1 MOL      0.722304
    108 O17         2.4490   -4.5770   -1.4410 o         1 MOL     -0.654373
    109 O18         1.2560   -2.9800   -2.3110 o         1 MOL     -0.654373
    110 H47         3.4930   -1.3590   -0.2500 hn        1 MOL      0.023289
    111 H48         5.4710   -3.3690   -1.3480 h1        1 MOL      0.048662
    112 H49         4.0630   -3.4050   -3.2710 hc        1 MOL      0.057993
    113 H50         3.4570   -1.8210   -2.8280 hc        1 MOL      0.057993
    114 N11         5.8260   -0.2750   -1.1810 n         1 MOL     -0.573415
    115 C36         6.9390    0.7140   -1.1550 c3        1 MOL      0.268157
    116 C37         6.4430    2.0310   -0.5670 c         1 MOL      0.428519
    117 O19         6.0560    2.0240    0.5830 o         1 MOL     -0.492987
    118 C38         8.1280    0.2450   -0.3300 c3        1 MOL     -0.379310
    119 C39         9.3460    1.1250   -0.1800 ca        1 MOL      0.209283
    120 C40         9.7150    1.7440    1.0660 ca        1 MOL     -0.208230
    121 C41        10.1390    1.4360   -1.2990 ca        1 MOL     -0.208230
    122 C42        10.8150    2.5820    1.1630 ca        1 MOL     -0.080411
    123 C43        11.1860    2.3210   -1.1680 ca        1 MOL     -0.080411
    124 C44        11.5370    2.8870    0.0330 ca        1 MOL     -0.138144
    125 H51         5.1340   -0.1170   -0.4620 hn        1 MOL      0.316009
    126 H52         7.3090    0.7890   -2.1740 h1        1 MOL      0.019328
    127 H53         8.4410   -0.7360   -0.6670 hc        1 MOL      0.127743
    128 H54         7.7950    0.0450    0.6880 hc        1 MOL      0.127743
    129 H55         9.2390    1.6470    2.0250 ha        1 MOL      0.129332
    130 H56         9.8300    1.0550   -2.2670 ha        1 MOL      0.129332
    131 H57        11.0310    3.1610    2.0460 ha        1 MOL      0.096956
    132 H58        11.7230    2.7470   -2.0010 ha        1 MOL      0.096956
    133 H59        12.2820    3.6700   -0.0120 ha        1 MOL      0.099820
    134 N12         6.4140    3.0860   -1.3590 n         1 MOL     -0.060819
    135 C45         6.5030    4.4340   -0.8170 c3        1 MOL     -0.011851
    136 C46         5.1660    4.9370   -0.2230 c         1 MOL      0.413208
    137 O20         4.9180    6.1000    0.0060 o         1 MOL     -0.522672
    138 C47         7.1160    5.3960   -1.8760 c3        1 MOL     -0.094192
    139 C48         6.8590    4.6020   -3.1420 c3        1 MOL      0.006675
    140 C49         6.9590    3.1640   -2.7330 c3        1 MOL     -0.020371
    141 H60         7.2600    4.3760   -0.0460 h1        1 MOL      0.065161
    142 H61         6.6770    6.3910   -1.9010 hc        1 MOL      0.053147
    143 H62         8.1910    5.5170   -1.7760 hc        1 MOL      0.053147
    144 H63         5.8810    4.7980   -3.5850 hc        1 MOL      0.029047
    145 H64         7.5360    4.9050   -3.9370 hc        1 MOL      0.029047
    146 H65         6.4810    2.4990   -3.4450 h1        1 MOL      0.033984
    147 H66         8.0440    3.0080   -2.6540 h1        1 MOL      0.033984
    148 N13         4.1450    4.0500   -0.0430 n         1 MOL     -0.039001
    149 C50         2.7670    4.3290    0.4070 c3        1 MOL     -0.401824
    150 C51         2.8250    4.8350    1.9240 c         1 MOL      0.572117
    151 O21         1.8030    5.4460    2.3460 o         1 MOL     -0.537032
    152 C52         1.8480    3.0860    0.1620 c3        1 MOL      0.062548
    153 C53         2.3050    1.7180    0.7150 c3        1 MOL     -0.082051
    154 C54         1.3730    0.7440    0.0220 c         1 MOL      0.648250
    155 O22         1.8980   -0.1270   -0.7300 o         1 MOL     -0.708133
    156 O23         0.1260    0.8110    0.1170 o         1 MOL     -0.708133
    157 H67         4.4080    3.0900   -0.2140 hn        1 MOL     -0.020139
    158 H68         2.4390    5.2000   -0.1600 h1        1 MOL      0.185854
    159 H69         1.7330    2.9740   -0.9150 hc        1 MOL      0.064755
    160 H70         0.8200    3.1960    0.5110 hc        1 MOL      0.064755
    161 H71         2.3090    1.6280    1.8010 hc        1 MOL      0.035833
    162 H72         3.3000    1.4910    0.3410 hc        1 MOL      0.035833
    163 N14         3.9170    4.6290    2.6450 n         1 MOL     -0.229552
    164 C55         4.1700    5.1800    3.9430 c3        1 MOL     -0.191595
    165 H73         3.7080    6.1640    4.0150 h1        1 MOL      0.087478
    166 H74         3.7490    4.5240    4.7050 h1        1 MOL      0.087478
    167 H75         5.2450    5.2720    4.0950 h1        1 MOL      0.087478
    168 H76         4.7310    4.2620    2.1800 hn        1 MOL      0.227146
    169 Ca1        -0.3830   -1.4510   -1.1380 Ca        1 MOL      1.745933
    170 O24         0.0240   -0.3560   -3.7960 oh        1 MOL     -0.924981
    171 H77        -0.0950   -0.4740   -4.7320 ho        1 MOL      0.436907
    172 H78         0.0600    0.5880   -3.6680 ho        1 MOL      0.436907
    173 O25        -1.8390   -1.2650    1.1750 oh        1 MOL     -0.924981
    174 H79        -1.5710   -0.4900    1.6820 ho        1 MOL      0.436907
    175 H80        -2.7940   -1.2870    1.2660 ho        1 MOL      0.436907
@<TRIPOS>BOND
     1    1    2 1   
     2    1    4 1   
     3    1    5 1   
     4    1    6 1   
     5    2    3 2   
     6    2    7 1   
     7    7    8 1   
     8    7   15 1   
     9    8    9 1   
    10    8   11 1   
    11    8   16 1   
    12    9   10 2   
    13    9   19 1   
    14   11   12 1   
    15   11   17 1   
    16   11   18 1   
    17   12   13 1   
    18   12   14 1   
    19   19   20 1   
    20   19   24 1   
    21   20   21 1   
    22   20   23 1   
    23   20   25 1   
    24   21   22 2   
    25   21   29 1   
    26   23   26 1   
    27   23   27 1   
    28   23   28 1   
    29   29   30 1   
    30   29   37 1   
    31   30   31 1   
    32   30   33 1   
    33   30   38 1   
    34   31   32 2   
    35   31   41 1   
    36   33   34 1   
    37   33   39 1   
    38   33   40 1   
    39   34   35 1   
    40   34   36 1   
    41   41   42 1   
    42   41   45 1   
    43   42   43 1   
    44   42   46 1   
    45   42   47 1   
    46   43   44 2   
    47   43   48 1   
    48   48   49 1   
    49   48   56 1   
    50   49   50 1   
    51   49   52 1   
    52   49   57 1   
    53   50   51 2   
    54   50   62 1   
    55   52   53 1   
    56   52   58 1   
    57   52   59 1   
    58   53   54 1   
    59   53   55 2   
    60   54   60 1   
    61   54   61 1   
    62   62   63 1   
    63   62   66 1   
    64   63   64 1   
    65   63   67 1   
    66   63   68 1   
    67   64   65 2   
    68   64   69 1   
    69   69   70 1   
    70   69   76 1   
    71   70   71 1   
    72   70   73 1   
    73   70   77 1   
    74   71   72 2   
    75   71   83 1   
    76   73   74 1   
    77   73   75 1   
    78   73   78 1   
    79   74   80 1   
    80   74   81 1   
    81   74   82 1   
    82   75   79 1   
    83   83   84 1   
    84   83   91 1   
    85   84   85 1   
    86   84   87 1   
    87   84   92 1   
    88   85   86 2   
    89   85  102 1   
    90   87   88 1   
    91   87   89 1   
    92   87   93 1   
    93   88   90 1   
    94   88   94 1   
    95   88   95 1   
    96   89   96 1   
    97   89   97 1   
    98   89   98 1   
    99   90   99 1   
   100   90  100 1   
   101   90  101 1   
   102  102  103 1   
   103  102  110 1   
   104  103  104 1   
   105  103  106 1   
   106  103  111 1   
   107  104  105 2   
   108  104  114 1   
   109  106  107 1   
   110  106  112 1   
   111  106  113 1   
   112  107  108 1   
   113  107  109 1   
   114  114  115 1   
   115  114  125 1   
   116  115  116 1   
   117  115  118 1   
   118  115  126 1   
   119  116  117 2   
   120  116  134 1   
   121  118  119 1   
   122  118  127 1   
   123  118  128 1   
   124  119  120 ar  
   125  119  121 ar  
   126  120  122 ar  
   127  120  129 1   
   128  121  123 ar  
   129  121  130 1   
   130  122  124 ar  
   131  122  131 1   
   132  123  124 ar  
   133  123  132 1   
   134  124  133 1   
   135  134  135 1   
   136  134  140 1   
   137  135  136 1   
   138  135  138 1   
   139  135  141 1   
   140  136  137 2   
   141  136  148 1   
   142  138  139 1   
   143  138  142 1   
   144  138  143 1   
   145  139  140 1   
   146  139  144 1   
   147  139  145 1   
   148  140  146 1   
   149  140  147 1   
   150  148  149 1   
   151  148  157 1   
   152  149  150 1   
   153  149  152 1   
   154  149  158 1   
   155  150  151 2   
   156  150  163 1   
   157  152  153 1   
   158  152  159 1   
   159  152  160 1   
   160  153  154 1   
   161  153  161 1   
   162  153  162 1   
   163  154  155 1   
   164  154  156 1   
   165  163  164 1   
   166  163  168 1   
   167  164  165 1   
   168  164  166 1   
   169  164  167 1   
   170  170  171 1   
   171  170  172 1   
   172  173  174 1   
   173  173  175 1   
@<TRIPOS>SUBSTRUCTURE
     1 MOL         1 TEMP              0 ****  ****    0 ROOT
