@<TRIPOS>MOLECULE
MOL
  195   189     1     0     0
SMALL
resp


@<TRIPOS>ATOM
      1 C1          3.4730    3.0850    3.4960 c3        1 MOL     -0.404125
      2 C2          2.7650    3.3370    2.0850 c         1 MOL      0.705646
      3 O1          2.0690    2.4380    1.5840 o         1 MOL     -0.506853
      4 H1          2.7270    3.1270    4.2900 hc        1 MOL      0.095967
      5 H2          3.9460    2.1020    3.4960 hc        1 MOL      0.095967
      6 H3          4.2280    3.8520    3.6670 hc        1 MOL      0.095967
      7 N1          2.9930    4.5080    1.5220 n         1 MOL     -0.512075
      8 C3          2.2920    5.0040    0.3880 c3        1 MOL     -0.247153
      9 C4          0.7810    4.9150    0.5480 c         1 MOL      0.926395
     10 O2          0.1330    4.4370   -0.3900 o         1 MOL     -0.586187
     11 C5          2.7900    4.4780   -0.9700 c3        1 MOL     -0.358028
     12 C6          4.2860    4.6590   -1.2090 c         1 MOL      0.904255
     13 O3          4.8870    3.7770   -1.9180 o         1 MOL     -0.793154
     14 O4          4.9960    5.5470   -0.6630 o         1 MOL     -0.793154
     15 H4          3.6090    5.1200    2.0390 hn        1 MOL      0.306621
     16 H5          2.3800    6.0810    0.5390 h1        1 MOL      0.120625
     17 H6          2.2100    4.8450   -1.8250 hc        1 MOL      0.153721
     18 H7          2.5840    3.4100   -0.9530 hc        1 MOL      0.153721
     19 N2          0.1610    5.3540    1.6740 n         1 MOL     -0.727095
     20 C7         -1.2950    5.3520    1.8780 c3        1 MOL     -0.065905
     21 C8         -1.9150    6.3750    0.9320 c         1 MOL      0.377638
     22 O5         -1.3920    7.4860    0.7000 o         1 MOL     -0.541756
     23 C9         -1.6710    5.4410    3.3760 c3        1 MOL      0.420542
     24 C10        -2.1290    6.8350    3.8860 c3        1 MOL      0.023872
     25 C11        -0.5860    4.9010    4.3070 c3        1 MOL     -0.321236
     26 C12        -1.0720    7.9360    3.9820 c3        1 MOL      0.001555
     27 H8          0.6380    6.0280    2.2650 hn        1 MOL      0.352018
     28 H9         -1.6100    4.3440    1.6050 h1        1 MOL      0.103570
     29 H10        -2.5780    4.8470    3.5570 hc        1 MOL     -0.049450
     30 H11        -2.5600    6.6490    4.8690 hc        1 MOL     -0.021030
     31 H12        -2.9510    7.1930    3.2710 hc        1 MOL     -0.021030
     32 H13         0.2200    5.6410    4.3310 hc        1 MOL      0.054838
     33 H14        -1.0850    4.8020    5.2780 hc        1 MOL      0.054838
     34 H15        -0.2980    3.8900    4.0350 hc        1 MOL      0.054838
     35 H16        -0.4770    7.9670    3.0710 hc        1 MOL     -0.017550
     36 H17        -1.5660    8.9040    4.1170 hc        1 MOL     -0.017550
     37 H18        -0.3990    7.7410    4.8150 hc        1 MOL     -0.017550
     38 N3         -3.0960    6.2170    0.2880 n         1 MOL     -0.292094
     39 C13        -4.0430    5.1090    0.5550 c3        1 MOL     -0.019979
     40 C14        -3.8870    3.8940   -0.4650 c         1 MOL      0.458895
     41 O6         -4.2630    2.7390   -0.0860 o         1 MOL     -0.586971
     42 C15        -5.4610    5.5130    0.6380 c3        1 MOL     -0.091827
     43 C16        -6.0680    6.4020   -0.4130 c         1 MOL      0.692370
     44 O7         -7.2780    6.7120   -0.3170 o         1 MOL     -0.714813
     45 O8         -5.3600    6.7420   -1.3930 o         1 MOL     -0.714813
     46 H19        -3.3670    6.9590   -0.3380 hn        1 MOL      0.257599
     47 H20        -3.8150    4.7050    1.5400 h1        1 MOL      0.030726
     48 H21        -5.6500    5.9470    1.6220 hc        1 MOL      0.014684
     49 H22        -6.1170    4.6370    0.6600 hc        1 MOL      0.014684
     50 N4         -3.3260    4.0910   -1.6100 n         1 MOL     -0.124520
     51 C17        -3.2860    3.0190   -2.5870 c3        1 MOL     -0.361544
     52 C18        -4.6540    2.5130   -3.0580 c         1 MOL      0.592519
     53 O9         -5.6330    3.2900   -3.1390 o         1 MOL     -0.518800
     54 H23        -3.1250    5.0320   -1.9050 hn        1 MOL      0.252175
     55 H24        -2.6150    2.2300   -2.2660 h1        1 MOL      0.137785
     56 H25        -2.8560    3.5310   -3.4450 h1        1 MOL      0.137785
     57 N5         -4.7520    1.1980   -3.3360 n         1 MOL     -0.497029
     58 C19        -5.9930    0.5150   -3.7720 c3        1 MOL      0.107908
     59 C20        -7.1330    0.4200   -2.7850 c         1 MOL      0.422440
     60 O10        -8.2390   -0.0970   -3.0690 o         1 MOL     -0.557631
     61 C21        -5.6650   -0.8830   -4.4100 c3        1 MOL     -0.246627
     62 C22        -4.5480   -1.6180   -3.6530 c         1 MOL      0.735681
     63 O11        -4.8430   -2.0720   -2.5340 o         1 MOL     -0.697634
     64 O12        -3.3940   -1.5630   -4.0160 o         1 MOL     -0.697634
     65 H26        -3.9180    0.6280   -3.2940 hn        1 MOL      0.323350
     66 H27        -6.4130    1.1570   -4.5520 h1        1 MOL      0.074677
     67 H28        -5.3200   -0.7210   -5.4340 hc        1 MOL      0.025128
     68 H29        -6.5610   -1.4880   -4.4410 hc        1 MOL      0.025128
     69 N6         -6.9110    0.8400   -1.5110 n         1 MOL     -0.239966
     70 C23        -7.7730    0.6320   -0.2790 c3        1 MOL     -0.100921
     71 C24        -7.8060   -0.7610    0.3700 c         1 MOL      0.545516
     72 O13        -8.4560   -0.9420    1.3700 o         1 MOL     -0.574664
     73 H30        -6.0800    1.3920   -1.3430 hn        1 MOL      0.264860
     74 H31        -8.7930    0.8950   -0.5310 h1        1 MOL      0.098382
     75 H32        -7.5710    1.3110    0.5460 h1        1 MOL      0.098382
     76 N7         -7.2930   -1.7620   -0.3820 n         1 MOL     -0.247359
     77 C25        -7.1910   -3.2810   -0.1870 c3        1 MOL      0.093558
     78 C26        -6.8550   -3.7270    1.2720 c         1 MOL      0.542460
     79 O14        -7.3880   -4.7280    1.6990 o         1 MOL     -0.544777
     80 C27        -8.4880   -3.8520   -0.7590 c3        1 MOL      0.021483
     81 C28        -8.8900   -3.2930   -2.1620 c3        1 MOL     -0.149358
     82 C29       -10.0430   -4.0700   -2.8090 c         1 MOL      0.552753
     83 N8        -10.1790   -4.0060   -4.1020 n         1 MOL     -0.721433
     84 O15       -10.9500   -4.7070   -2.1970 o         1 MOL     -0.585773
     85 H33        -6.9670   -1.4340   -1.2870 hn        1 MOL      0.054378
     86 H34        -6.4770   -3.6200   -0.9410 h1        1 MOL      0.056064
     87 H35        -9.3210   -3.8360   -0.0590 hc        1 MOL      0.007802
     88 H36        -8.2220   -4.9090   -0.8830 hc        1 MOL      0.007802
     89 H37        -8.1100   -3.3110   -2.9260 hc        1 MOL      0.103465
     90 H38        -9.2290   -2.2570   -2.0300 hc        1 MOL      0.103465
     91 H39        -9.4560   -3.5260   -4.6220 hn        1 MOL      0.338153
     92 H40       -10.8900   -4.6210   -4.4830 hn        1 MOL      0.338153
     93 N9         -5.9810   -3.0120    1.9030 n         1 MOL     -0.420627
     94 C30        -5.3860   -3.3660    3.2280 c3        1 MOL     -0.126788
     95 C31        -3.8490   -3.2120    3.3070 c         1 MOL      0.624746
     96 O16        -3.3370   -3.3510    4.3710 o         1 MOL     -0.556399
     97 C32        -5.9700   -2.4530    4.3940 c3        1 MOL      0.269386
     98 C33        -5.6540   -0.9720    4.2150 c3        1 MOL     -0.295457
     99 C34        -7.4880   -2.5360    4.5310 c3        1 MOL     -0.295457
    100 H41        -5.6300   -2.2300    1.3730 hn        1 MOL      0.271918
    101 H42        -5.5930   -4.4240    3.3790 h1        1 MOL      0.116286
    102 H43        -5.4690   -2.8390    5.2810 hc        1 MOL     -0.022632
    103 H44        -6.1370   -0.3870    4.9980 hc        1 MOL      0.068895
    104 H45        -4.6190   -0.7160    4.4450 hc        1 MOL      0.068895
    105 H46        -5.9890   -0.5920    3.2470 hc        1 MOL      0.068895
    106 H47        -8.1090   -2.1040    3.7560 hc        1 MOL      0.068895
    107 H48        -7.8130   -3.5730    4.6570 hc        1 MOL      0.068895
    108 H49        -7.7900   -2.0860    5.4820 hc        1 MOL      0.068895
    109 N10        -3.1080   -2.9000    2.2140 n         1 MOL     -0.583822
    110 C35        -1.7040   -2.5230    2.3070 c3        1 MOL      0.458699
    111 C36        -0.8690   -3.0720    1.0530 c         1 MOL      0.398404
    112 O17        -1.4290   -3.3910   -0.0010 o         1 MOL     -0.477269
    113 C37        -1.6950   -0.9820    2.5120 c3        1 MOL     -0.371361
    114 C38        -0.3670   -0.4080    2.8190 c         1 MOL      0.694629
    115 N11        -0.1360    0.8220    2.4260 n         1 MOL     -0.748144
    116 O18         0.4880   -1.0870    3.3830 o         1 MOL     -0.583240
    117 H50        -3.6200   -2.7150    1.3710 hn        1 MOL      0.260901
    118 H51        -1.2420   -3.0580    3.1350 h1        1 MOL     -0.006312
    119 H52        -2.4230   -0.7190    3.2700 hc        1 MOL      0.107161
    120 H53        -2.1230   -0.5430    1.6080 hc        1 MOL      0.107161
    121 H54        -0.8070    1.2170    1.7880 hn        1 MOL      0.345553
    122 H55         0.7420    1.3170    2.5410 hn        1 MOL      0.345553
    123 N12         0.4910   -3.1530    1.2160 n         1 MOL     -0.484428
    124 C39         1.4600   -3.7970    0.3090 c3        1 MOL      0.185041
    125 C40         2.8770   -3.9850    0.9330 c         1 MOL      0.478329
    126 O19         3.3240   -3.1700    1.7660 o         1 MOL     -0.534501
    127 C41         1.5020   -3.0080   -1.0620 c3        1 MOL     -0.033211
    128 C42         2.2060   -3.6860   -2.2380 ca        1 MOL     -0.070097
    129 C43         3.5060   -3.2190   -2.5820 ca        1 MOL     -0.098818
    130 C44         1.8350   -4.9180   -2.8220 ca        1 MOL     -0.098818
    131 C45         4.2490   -3.7390   -3.6500 ca        1 MOL     -0.293495
    132 C46         2.5420   -5.4780   -3.8840 ca        1 MOL     -0.293495
    133 C47         3.7340   -4.8860   -4.3110 ca        1 MOL      0.340034
    134 O20         4.4410   -5.5550   -5.2630 oh        1 MOL     -0.497417
    135 H56         0.8580   -2.5940    1.9730 hn        1 MOL      0.259344
    136 H57         1.0560   -4.7470   -0.0670 h1        1 MOL      0.021041
    137 H58         1.9080   -2.0100   -0.9060 hc        1 MOL      0.064923
    138 H59         0.4890   -2.8290   -1.4180 hc        1 MOL      0.064923
    139 H60         3.8530   -2.3410   -2.0490 ha        1 MOL      0.133101
    140 H61         0.9640   -5.4890   -2.5200 ha        1 MOL      0.133101
    141 H62         5.2030   -3.2970   -3.8840 ha        1 MOL      0.162672
    142 H63         2.1280   -6.3810   -4.3030 ha        1 MOL      0.162672
    143 H64         5.1420   -5.0130   -5.6310 ho        1 MOL      0.358170
    144 N13         3.6130   -4.9130    0.3510 n         1 MOL     -0.477723
    145 C48         5.0600   -5.1710    0.5340 c3        1 MOL      0.132640
    146 C49         5.8230   -5.0310   -0.8290 c         1 MOL      0.335974
    147 O21         5.5780   -5.9160   -1.6860 o         1 MOL     -0.482636
    148 C50         5.3800   -6.5300    1.2130 c3        1 MOL      0.038457
    149 C51         4.8190   -6.7770    2.6090 c3        1 MOL     -0.158205
    150 C52         5.0310   -8.2430    3.0810 c         1 MOL      0.676543
    151 O22         4.1370   -9.0980    2.8540 o         1 MOL     -0.678471
    152 O23         6.0960   -8.5110    3.6800 o         1 MOL     -0.678471
    153 H65         3.2100   -5.5390   -0.3240 hn        1 MOL      0.332078
    154 H66         5.5130   -4.4480    1.2130 h1        1 MOL      0.087113
    155 H67         6.4530   -6.7150    1.2010 hc        1 MOL      0.010104
    156 H68         4.9440   -7.3410    0.6260 hc        1 MOL      0.010104
    157 H69         3.7630   -6.5310    2.5300 hc        1 MOL      0.011841
    158 H70         5.2870   -6.1280    3.3530 hc        1 MOL      0.011841
    159 N14         6.4560   -3.9320   -1.2180 n         1 MOL     -0.376232
    160 C53         6.7770   -2.6830   -0.4240 c3        1 MOL      0.081905
    161 C54         7.2990   -2.8990    1.0040 c         1 MOL      0.523112
    162 O24         8.1850   -3.7740    1.1670 o         1 MOL     -0.541072
    163 C55         7.5770   -1.7470   -1.3470 c3        1 MOL      0.110378
    164 C56         7.7810   -0.3230   -0.7780 c3        1 MOL     -0.269225
    165 C57         8.5990    0.5470   -1.7520 c         1 MOL      0.682825
    166 O25         8.3490    1.7990   -1.7920 o         1 MOL     -0.640655
    167 O26         9.5340    0.1310   -2.4110 o         1 MOL     -0.640655
    168 H71         6.6720   -3.8090   -2.2010 hn        1 MOL      0.247525
    169 H72         5.7850   -2.2120   -0.4290 h1        1 MOL     -0.017543
    170 H73         6.9810   -1.6220   -2.2590 hc        1 MOL     -0.008991
    171 H74         8.4900   -2.2980   -1.5640 hc        1 MOL     -0.008991
    172 H75         8.3380   -0.4330    0.1540 hc        1 MOL      0.014095
    173 H76         6.7900    0.1120   -0.6120 hc        1 MOL      0.014095
    174 N15         6.6980   -2.1560    1.9160 n         1 MOL     -0.260311
    175 C58         6.8940   -2.2150    3.3460 c3        1 MOL     -0.150698
    176 H77         5.9470   -2.0220    3.8500 h1        1 MOL      0.083005
    177 H78         7.2570   -3.2040    3.6230 h1        1 MOL      0.083005
    178 H79         7.6240   -1.4630    3.6450 h1        1 MOL      0.083005
    179 H80         6.1250   -1.4040    1.5610 hn        1 MOL      0.233441
    180 Ca1         7.4460    4.2130   -1.0530 Ca        1 MOL      1.672824
    181 O27         7.5830    4.3590   -3.7010 oh        1 MOL     -0.855424
    182 H81         8.1740    5.0620   -3.9800 ho        1 MOL      0.406001
    183 H82         6.9570    4.2720   -4.4180 ho        1 MOL      0.406001
    184 O28         6.2020    2.4770    0.5630 oh        1 MOL     -0.855424
    185 H83         5.5560    1.8390    0.2580 ho        1 MOL      0.406001
    186 H84         6.5220    2.1170    1.3910 ho        1 MOL      0.406001
    187 O29         9.3330    3.0660    0.7490 oh        1 MOL     -0.855424
    188 H85         9.0970    2.1940    1.0840 ho        1 MOL      0.406001
    189 H86        10.1630    3.2670    1.1800 ho        1 MOL      0.406001
    190 O30         7.4550    6.9520   -2.0270 oh        1 MOL     -0.855424
    191 H87         6.5960    7.1720   -2.3930 ho        1 MOL      0.406001
    192 H88         7.9040    7.7950   -1.9380 ho        1 MOL      0.406001
    193 O31         9.9800    4.7460   -1.9560 oh        1 MOL     -0.855424
    194 H89        10.3570    4.9830   -1.1080 ho        1 MOL      0.406001
    195 H90        10.1580    5.5040   -2.5150 ho        1 MOL      0.406001
@<TRIPOS>BOND
     1    1    2 1   
     2    1    4 1   
     3    1    5 1   
     4    1    6 1   
     5    2    3 2   
     6    2    7 1   
     7    7    8 1   
     8    7   15 1   
     9    8    9 1   
    10    8   11 1   
    11    8   16 1   
    12    9   10 2   
    13    9   19 1   
    14   11   12 1   
    15   11   17 1   
    16   11   18 1   
    17   12   13 1   
    18   12   14 1   
    19   19   20 1   
    20   19   27 1   
    21   20   21 1   
    22   20   23 1   
    23   20   28 1   
    24   21   22 2   
    25   21   38 1   
    26   23   24 1   
    27   23   25 1   
    28   23   29 1   
    29   24   26 1   
    30   24   30 1   
    31   24   31 1   
    32   25   32 1   
    33   25   33 1   
    34   25   34 1   
    35   26   35 1   
    36   26   36 1   
    37   26   37 1   
    38   38   39 1   
    39   38   46 1   
    40   39   40 1   
    41   39   42 1   
    42   39   47 1   
    43   40   41 2   
    44   40   50 1   
    45   42   43 1   
    46   42   48 1   
    47   42   49 1   
    48   43   44 1   
    49   43   45 1   
    50   50   51 1   
    51   50   54 1   
    52   51   52 1   
    53   51   55 1   
    54   51   56 1   
    55   52   53 2   
    56   52   57 1   
    57   57   58 1   
    58   57   65 1   
    59   58   59 1   
    60   58   61 1   
    61   58   66 1   
    62   59   60 2   
    63   59   69 1   
    64   61   62 1   
    65   61   67 1   
    66   61   68 1   
    67   62   63 1   
    68   62   64 1   
    69   69   70 1   
    70   69   73 1   
    71   70   71 1   
    72   70   74 1   
    73   70   75 1   
    74   71   72 2   
    75   71   76 1   
    76   76   77 1   
    77   76   85 1   
    78   77   78 1   
    79   77   80 1   
    80   77   86 1   
    81   78   79 2   
    82   78   93 1   
    83   80   81 1   
    84   80   87 1   
    85   80   88 1   
    86   81   82 1   
    87   81   89 1   
    88   81   90 1   
    89   82   83 1   
    90   82   84 2   
    91   83   91 1   
    92   83   92 1   
    93   93   94 1   
    94   93  100 1   
    95   94   95 1   
    96   94   97 1   
    97   94  101 1   
    98   95   96 2   
    99   95  109 1   
   100   97   98 1   
   101   97   99 1   
   102   97  102 1   
   103   98  103 1   
   104   98  104 1   
   105   98  105 1   
   106   99  106 1   
   107   99  107 1   
   108   99  108 1   
   109  109  110 1   
   110  109  117 1   
   111  110  111 1   
   112  110  113 1   
   113  110  118 1   
   114  111  112 2   
   115  111  123 1   
   116  113  114 1   
   117  113  119 1   
   118  113  120 1   
   119  114  115 1   
   120  114  116 2   
   121  115  121 1   
   122  115  122 1   
   123  123  124 1   
   124  123  135 1   
   125  124  125 1   
   126  124  127 1   
   127  124  136 1   
   128  125  126 2   
   129  125  144 1   
   130  127  128 1   
   131  127  137 1   
   132  127  138 1   
   133  128  129 ar  
   134  128  130 ar  
   135  129  131 ar  
   136  129  139 1   
   137  130  132 ar  
   138  130  140 1   
   139  131  133 ar  
   140  131  141 1   
   141  132  133 ar  
   142  132  142 1   
   143  133  134 1   
   144  134  143 1   
   145  144  145 1   
   146  144  153 1   
   147  145  146 1   
   148  145  148 1   
   149  145  154 1   
   150  146  147 2   
   151  146  159 1   
   152  148  149 1   
   153  148  155 1   
   154  148  156 1   
   155  149  150 1   
   156  149  157 1   
   157  149  158 1   
   158  150  151 1   
   159  150  152 1   
   160  159  160 1   
   161  159  168 1   
   162  160  161 1   
   163  160  163 1   
   164  160  169 1   
   165  161  162 2   
   166  161  174 1   
   167  163  164 1   
   168  163  170 1   
   169  163  171 1   
   170  164  165 1   
   171  164  172 1   
   172  164  173 1   
   173  165  166 1   
   174  165  167 1   
   175  174  175 1   
   176  174  179 1   
   177  175  176 1   
   178  175  177 1   
   179  175  178 1   
   180  181  182 1   
   181  181  183 1   
   182  184  185 1   
   183  184  186 1   
   184  187  188 1   
   185  187  189 1   
   186  190  191 1   
   187  190  192 1   
   188  193  194 1   
   189  193  195 1   
@<TRIPOS>SUBSTRUCTURE
     1 MOL         1 TEMP              0 ****  ****    0 ROOT
