@<TRIPOS>MOLECULE
MOL
  188   182     1     0     0
SMALL
resp


@<TRIPOS>ATOM
      1 C1          6.3650   -0.1080   -3.9990 c3        1 MOL     -0.440213
      2 C2          7.2390   -0.4400   -2.7240 c         1 MOL      0.642055
      3 O1          6.7260   -0.8010   -1.6460 o         1 MOL     -0.487607
      4 H1          5.4600    0.4150   -3.6920 hc        1 MOL      0.116566
      5 H2          6.9370    0.5240   -4.6790 hc        1 MOL      0.116566
      6 H3          6.0940   -1.0340   -4.5050 hc        1 MOL      0.116566
      7 N1          8.5710   -0.2980   -2.8320 n         1 MOL     -0.373573
      8 C3          9.5360   -0.5620   -1.7760 c3        1 MOL      0.027882
      9 C4          9.3260    0.3160   -0.4800 c         1 MOL      0.493147
     10 O2          9.9390    0.0590    0.6160 o         1 MOL     -0.574929
     11 C5          9.8510   -1.9690   -1.5350 c3        1 MOL     -0.437874
     12 C6         10.2120   -2.7020   -2.7850 c         1 MOL      0.811549
     13 O3          9.4950   -3.5010   -3.3850 o         1 MOL     -0.696589
     14 O4         11.3370   -2.4190   -3.2470 o         1 MOL     -0.696589
     15 H4          8.9250    0.1170   -3.6910 hn        1 MOL      0.276479
     16 H5         10.4790   -0.1270   -2.1050 h1        1 MOL      0.053020
     17 H6          8.9830   -2.3520   -0.9950 hc        1 MOL      0.127894
     18 H7         10.6750   -2.1220   -0.8400 hc        1 MOL      0.127894
     19 N2          8.4460    1.2450   -0.5190 n         1 MOL     -0.231231
     20 C7          7.7650    2.0090    0.6130 c3        1 MOL      0.009671
     21 C8          6.2910    2.2270    0.2360 c         1 MOL      0.477621
     22 O5          5.9600    2.6730   -0.8790 o         1 MOL     -0.511858
     23 C9          8.3400    3.4240    0.8070 c3        1 MOL      0.019970
     24 C10         9.8040    3.5000    1.2480 c3        1 MOL     -0.012507
     25 C11        10.7140    3.7650    0.0240 c3        1 MOL      0.031945
     26 C12        12.1400    3.8700    0.5700 c3        1 MOL      0.127747
     27 N3         13.1420    4.1730   -0.4890 n4        1 MOL     -0.307302
     28 H8          8.1730    1.3440   -1.4780 hn        1 MOL      0.124571
     29 H9          7.7860    1.6090    1.6360 h1        1 MOL      0.101430
     30 H10         7.6090    3.9740    1.4050 hc        1 MOL      0.000342
     31 H11         8.3370    3.9040   -0.1740 hc        1 MOL      0.000342
     32 H12        10.0420    2.5790    1.7770 hc        1 MOL      0.018317
     33 H13         9.9720    4.2840    1.9840 hc        1 MOL      0.018317
     34 H14        10.4430    4.7240   -0.4140 hc        1 MOL     -0.005289
     35 H15        10.6520    2.9500   -0.7010 hc        1 MOL     -0.005289
     36 H16        12.3960    2.9650    1.1220 hx        1 MOL      0.041794
     37 H17        12.1560    4.6970    1.2880 hx        1 MOL      0.041794
     38 H18        13.0370    5.1450   -0.7410 hn        1 MOL      0.257168
     39 H19        14.0760    4.0750   -0.1360 hn        1 MOL      0.257168
     40 H20        12.9740    3.5200   -1.2400 hn        1 MOL      0.257168
     41 N4          5.4090    1.8500    1.1370 n         1 MOL     -0.403774
     42 C13         3.9710    2.0130    1.0610 c3        1 MOL     -0.050407
     43 C14         3.3810    2.1820    2.4400 c         1 MOL      0.470325
     44 O6          3.6980    1.4480    3.3470 o         1 MOL     -0.469088
     45 C15         3.3420    0.8110    0.3150 c3        1 MOL     -0.073718
     46 C16         1.8250    0.8280    0.1010 c         1 MOL      0.667772
     47 O7          0.9980    0.5610    0.9820 o         1 MOL     -0.768465
     48 O8          1.3570    1.2340   -0.9890 o         1 MOL     -0.768465
     49 H21         5.7650    1.4760    2.0020 hn        1 MOL      0.280571
     50 H22         3.7190    2.8800    0.4500 h1        1 MOL      0.081793
     51 H23         3.6090   -0.1210    0.8030 hc        1 MOL      0.079733
     52 H24         3.8390    0.7540   -0.6530 hc        1 MOL      0.079733
     53 N5          2.6170    3.2390    2.7440 n         1 MOL     -0.215195
     54 C17         2.0850    3.5170    4.0270 c3        1 MOL     -0.232876
     55 C18         1.1560    2.4160    4.6340 c         1 MOL      0.591132
     56 O9          0.9740    2.4550    5.8270 o         1 MOL     -0.556866
     57 H25         2.5060    3.9770    2.0650 hn        1 MOL      0.204347
     58 H26         1.3770    4.3290    3.8950 h1        1 MOL      0.114197
     59 H27         2.9160    3.7990    4.6780 h1        1 MOL      0.114197
     60 N6          0.6200    1.4140    3.9660 n         1 MOL     -0.424342
     61 C19        -0.2930    0.3880    4.4980 c3        1 MOL      0.209531
     62 C20         0.0670   -1.0080    4.0180 c         1 MOL      0.386968
     63 O10        -0.6930   -1.8910    4.3480 o         1 MOL     -0.493521
     64 C21        -1.7920    0.6870    4.2230 c3        1 MOL     -0.275495
     65 C22        -2.3220    0.5240    2.7920 c         1 MOL      0.544484
     66 N7         -3.0560   -0.5750    2.5610 n         1 MOL     -0.632085
     67 O11        -1.9340    1.1680    1.8430 o         1 MOL     -0.598670
     68 H28         0.8020    1.3920    2.9750 hn        1 MOL      0.253695
     69 H29        -0.1330    0.3470    5.5740 h1        1 MOL      0.092331
     70 H30        -1.9260    1.6930    4.6340 hc        1 MOL      0.089898
     71 H31        -2.3160    0.0390    4.9300 hc        1 MOL      0.089898
     72 H32        -3.3730   -1.0920    3.3720 hn        1 MOL      0.308464
     73 H33        -3.6090   -0.6520    1.7150 hn        1 MOL      0.308464
     74 N8          1.2400   -1.1980    3.3950 n         1 MOL     -0.169972
     75 C23         1.7350   -2.5860    3.1020 c3        1 MOL     -0.276309
     76 C24         0.8250   -3.2490    2.0150 c         1 MOL      0.527680
     77 O12         0.5520   -4.4550    1.9960 o         1 MOL     -0.514241
     78 H34         1.8870   -0.4290    3.2690 hn        1 MOL      0.154446
     79 H35         1.7330   -3.1440    4.0460 h1        1 MOL      0.147833
     80 H36         2.7480   -2.4760    2.7150 h1        1 MOL      0.147833
     81 N9          0.5100   -2.3960    1.0090 n         1 MOL     -0.375476
     82 C25         0.0370   -2.8250   -0.2710 c3        1 MOL     -0.028626
     83 C26        -1.1940   -2.0800   -0.9160 c         1 MOL      0.679269
     84 O13        -1.3540   -0.9060   -0.6580 o         1 MOL     -0.568871
     85 C27         1.1950   -2.7920   -1.2580 c3        1 MOL     -0.078381
     86 C28         2.4650   -3.5600   -0.8280 ca        1 MOL      0.103565
     87 C29         3.6810   -2.8820   -0.7630 ca        1 MOL     -0.199584
     88 C30         2.3570   -4.9840   -0.6260 ca        1 MOL     -0.199584
     89 C31         4.8730   -3.5950   -0.4350 ca        1 MOL     -0.195342
     90 C32         3.5150   -5.7150   -0.3910 ca        1 MOL     -0.195342
     91 C33         4.7550   -5.0220   -0.3150 ca        1 MOL      0.285826
     92 O14         5.9570   -5.7020   -0.0630 oh        1 MOL     -0.475715
     93 H37         0.7270   -1.4160    1.0930 hn        1 MOL      0.346599
     94 H38        -0.2740   -3.8640   -0.3650 h1        1 MOL      0.039538
     95 H39         1.4840   -1.7730   -1.5100 hc        1 MOL      0.009001
     96 H40         0.8310   -3.2560   -2.1810 hc        1 MOL      0.009001
     97 H41         3.7310   -1.8650   -1.1020 ha        1 MOL      0.141000
     98 H42         1.4230   -5.5160   -0.7250 ha        1 MOL      0.141000
     99 H43         5.7430   -2.9980   -0.2290 ha        1 MOL      0.138034
    100 H44         3.5620   -6.7740   -0.1760 ha        1 MOL      0.138034
    101 H45         5.8110   -6.6530   -0.0920 ho        1 MOL      0.360948
    102 N10        -1.9560   -2.7560   -1.7620 n         1 MOL     -0.568872
    103 C34        -3.3620   -2.3360   -1.8680 c3        1 MOL     -0.019789
    104 C35        -4.0220   -2.4340   -0.4750 c         1 MOL      0.341362
    105 O15        -4.2580   -1.4400    0.2020 o         1 MOL     -0.344027
    106 C36        -4.0960   -3.1540   -2.9660 c3        1 MOL      0.065976
    107 C37        -3.2850   -3.2630   -4.3400 c3        1 MOL      0.123608
    108 C38        -5.4600   -2.6750   -3.1420 c3        1 MOL     -0.362925
    109 C39        -2.9270   -1.8810   -4.8610 c3        1 MOL     -0.288688
    110 H46        -1.7800   -3.7340   -1.9450 hn        1 MOL      0.356367
    111 H47        -3.4650   -1.2860   -2.1470 h1        1 MOL      0.093057
    112 H48        -4.2690   -4.1990   -2.6750 hc        1 MOL      0.007985
    113 H49        -3.8510   -3.8100   -5.0870 hc        1 MOL     -0.002357
    114 H50        -2.4580   -3.9290   -4.1060 hc        1 MOL     -0.002357
    115 H51        -5.3960   -1.6110   -3.3760 hc        1 MOL      0.104115
    116 H52        -5.8210   -3.2050   -4.0210 hc        1 MOL      0.104115
    117 H53        -6.0970   -2.7860   -2.2530 hc        1 MOL      0.104115
    118 H54        -2.3930   -1.9790   -5.8020 hc        1 MOL      0.084546
    119 H55        -3.8380   -1.3130   -5.0350 hc        1 MOL      0.084546
    120 H56        -2.3210   -1.3780   -4.1090 hc        1 MOL      0.084546
    121 N11        -4.2250   -3.6740    0.0710 n         1 MOL     -0.286975
    122 C40        -4.6150   -3.9450    1.4980 c3        1 MOL      0.037296
    123 C41        -6.0040   -3.3310    1.7470 c         1 MOL      0.305632
    124 O16        -6.1710   -2.7260    2.7900 o         1 MOL     -0.493259
    125 C42        -4.7470   -5.4490    1.6700 c3        1 MOL      0.125295
    126 O17        -4.2370   -6.3020    0.6280 oh        1 MOL     -0.557279
    127 H57        -4.0830   -4.4620   -0.5600 hn        1 MOL      0.170775
    128 H58        -3.8780   -3.4380    2.1150 h1        1 MOL      0.109389
    129 H59        -5.7960   -5.7470    1.7070 h1        1 MOL      0.058018
    130 H60        -4.2480   -5.7180    2.6030 h1        1 MOL      0.058018
    131 H61        -3.2910   -6.2460    0.7510 ho        1 MOL      0.391542
    132 N12        -6.8830   -3.4680    0.7930 n         1 MOL     -0.189697
    133 C43        -8.2550   -2.8350    0.7840 c3        1 MOL      0.024640
    134 C44        -8.3620   -1.3500    0.9940 c         1 MOL      0.476355
    135 O18        -9.4480   -0.8490    1.1560 o         1 MOL     -0.528504
    136 C45        -9.0900   -3.6260    1.8150 c3        1 MOL     -0.414080
    137 H62        -6.6300   -4.0990    0.0490 hn        1 MOL      0.262524
    138 H63        -8.6500   -3.0680   -0.2060 h1        1 MOL      0.075334
    139 H64       -10.0910   -3.2070    1.8660 hc        1 MOL      0.135679
    140 H65        -9.0100   -4.6940    1.6080 hc        1 MOL      0.135679
    141 H66        -8.7200   -3.5250    2.8400 hc        1 MOL      0.135679
    142 N13        -7.2490   -0.6430    1.0250 n         1 MOL     -0.213887
    143 C46        -7.2150    0.8080    1.1150 c3        1 MOL      0.255706
    144 C47        -7.0880    1.4830   -0.2540 c         1 MOL      0.275808
    145 O19        -6.3250    1.0160   -1.1070 o         1 MOL     -0.495715
    146 C48        -6.0570    1.0910    2.1120 c3        1 MOL     -0.167565
    147 H67        -6.4500   -1.1720    0.7230 hn        1 MOL      0.065765
    148 H68        -8.1690    1.1600    1.5190 h1        1 MOL     -0.001604
    149 H69        -5.9990    2.1690    2.2890 hc        1 MOL      0.058717
    150 H70        -6.3250    0.6330    3.0670 hc        1 MOL      0.058717
    151 H71        -5.1400    0.6710    1.7030 hc        1 MOL      0.058717
    152 N14        -7.8180    2.5930   -0.3510 n         1 MOL     -0.306459
    153 C49        -7.6630    3.5310   -1.4790 c3        1 MOL     -0.093188
    154 C50        -7.9270    2.8510   -2.8280 c         1 MOL      0.456410
    155 O20        -7.3670    3.1620   -3.8810 o         1 MOL     -0.469380
    156 C51        -6.3180    4.2990   -1.2190 c3        1 MOL      0.223017
    157 C52        -6.1970    5.6070   -1.9860 c3        1 MOL     -0.332963
    158 C53        -7.2360    6.6130   -1.7140 c         1 MOL      0.769450
    159 O21        -8.2760    6.4890   -2.4390 o         1 MOL     -0.708763
    160 O22        -7.0770    7.5980   -0.9930 o         1 MOL     -0.708763
    161 H72        -8.5190    2.7240    0.3620 hn        1 MOL      0.295957
    162 H73        -8.4520    4.2370   -1.2380 h1        1 MOL      0.103266
    163 H74        -5.3560    3.8270   -1.3860 hc        1 MOL     -0.080212
    164 H75        -6.2290    4.4700   -0.1490 hc        1 MOL     -0.080212
    165 H76        -6.2960    5.3850   -3.0420 hc        1 MOL      0.066554
    166 H77        -5.2360    6.0290   -1.6810 hc        1 MOL      0.066554
    167 N15        -8.9860    2.0170   -2.8110 n         1 MOL     -0.237856
    168 C54        -9.3910    1.2230   -4.0000 c3        1 MOL     -0.172094
    169 H78       -10.4170    0.8790   -3.8750 h1        1 MOL      0.090118
    170 H79        -9.3230    1.8430   -4.8940 h1        1 MOL      0.090118
    171 H80        -8.7310    0.3610   -4.1040 h1        1 MOL      0.090118
    172 H81        -9.4600    1.8070   -1.9500 hn        1 MOL      0.219101
    173 Ca1        -1.1450    1.6860   -0.6850 Ca        1 MOL      1.799437
    174 O23        -0.3590    0.9900   -3.1770 oh        1 MOL     -0.826850
    175 H82        -0.2700    0.1630   -3.6500 ho        1 MOL      0.415113
    176 H83         0.4580    1.4550   -3.3470 ho        1 MOL      0.415113
    177 O24        -3.5720    1.4660   -1.5720 oh        1 MOL     -0.826850
    178 H84        -4.4070    1.2800   -1.1370 ho        1 MOL      0.415113
    179 H85        -3.8130    1.7240   -2.4550 ho        1 MOL      0.415113
    180 O25        -0.0270    3.5550    0.9530 oh        1 MOL     -0.826850
    181 H86         0.7160    4.1600    0.8580 ho        1 MOL      0.415113
    182 H87        -0.5320    3.9050    1.6830 ho        1 MOL      0.415113
    183 O26        -1.2560    3.8560   -2.1240 oh        1 MOL     -0.826850
    184 H88        -0.7830    4.6590   -1.9340 ho        1 MOL      0.415113
    185 H89        -1.7110    4.0350   -2.9460 ho        1 MOL      0.415113
    186 O27        -3.1210    3.2320    0.8240 oh        1 MOL     -0.826850
    187 H90        -3.0270    4.1830    0.7750 ho        1 MOL      0.415113
    188 H91        -3.7320    3.0920    1.5480 ho        1 MOL      0.415113
@<TRIPOS>BOND
     1    1    2 1   
     2    1    4 1   
     3    1    5 1   
     4    1    6 1   
     5    2    3 2   
     6    2    7 1   
     7    7    8 1   
     8    7   15 1   
     9    8    9 1   
    10    8   11 1   
    11    8   16 1   
    12    9   10 2   
    13    9   19 1   
    14   11   12 1   
    15   11   17 1   
    16   11   18 1   
    17   12   13 1   
    18   12   14 1   
    19   19   20 1   
    20   19   28 1   
    21   20   21 1   
    22   20   23 1   
    23   20   29 1   
    24   21   22 2   
    25   21   41 1   
    26   23   24 1   
    27   23   30 1   
    28   23   31 1   
    29   24   25 1   
    30   24   32 1   
    31   24   33 1   
    32   25   26 1   
    33   25   34 1   
    34   25   35 1   
    35   26   27 1   
    36   26   36 1   
    37   26   37 1   
    38   27   38 1   
    39   27   39 1   
    40   27   40 1   
    41   41   42 1   
    42   41   49 1   
    43   42   43 1   
    44   42   45 1   
    45   42   50 1   
    46   43   44 2   
    47   43   53 1   
    48   45   46 1   
    49   45   51 1   
    50   45   52 1   
    51   46   47 1   
    52   46   48 1   
    53   53   54 1   
    54   53   57 1   
    55   54   55 1   
    56   54   58 1   
    57   54   59 1   
    58   55   56 2   
    59   55   60 1   
    60   60   61 1   
    61   60   68 1   
    62   61   62 1   
    63   61   64 1   
    64   61   69 1   
    65   62   63 2   
    66   62   74 1   
    67   64   65 1   
    68   64   70 1   
    69   64   71 1   
    70   65   66 1   
    71   65   67 2   
    72   66   72 1   
    73   66   73 1   
    74   74   75 1   
    75   74   78 1   
    76   75   76 1   
    77   75   79 1   
    78   75   80 1   
    79   76   77 2   
    80   76   81 1   
    81   81   82 1   
    82   81   93 1   
    83   82   83 1   
    84   82   85 1   
    85   82   94 1   
    86   83   84 2   
    87   83  102 1   
    88   85   86 1   
    89   85   95 1   
    90   85   96 1   
    91   86   87 ar  
    92   86   88 ar  
    93   87   89 ar  
    94   87   97 1   
    95   88   90 ar  
    96   88   98 1   
    97   89   91 ar  
    98   89   99 1   
    99   90   91 ar  
   100   90  100 1   
   101   91   92 1   
   102   92  101 1   
   103  102  103 1   
   104  102  110 1   
   105  103  104 1   
   106  103  106 1   
   107  103  111 1   
   108  104  105 2   
   109  104  121 1   
   110  106  107 1   
   111  106  108 1   
   112  106  112 1   
   113  107  109 1   
   114  107  113 1   
   115  107  114 1   
   116  108  115 1   
   117  108  116 1   
   118  108  117 1   
   119  109  118 1   
   120  109  119 1   
   121  109  120 1   
   122  121  122 1   
   123  121  127 1   
   124  122  123 1   
   125  122  125 1   
   126  122  128 1   
   127  123  124 2   
   128  123  132 1   
   129  125  126 1   
   130  125  129 1   
   131  125  130 1   
   132  126  131 1   
   133  132  133 1   
   134  132  137 1   
   135  133  134 1   
   136  133  136 1   
   137  133  138 1   
   138  134  135 2   
   139  134  142 1   
   140  136  139 1   
   141  136  140 1   
   142  136  141 1   
   143  142  143 1   
   144  142  147 1   
   145  143  144 1   
   146  143  146 1   
   147  143  148 1   
   148  144  145 2   
   149  144  152 1   
   150  146  149 1   
   151  146  150 1   
   152  146  151 1   
   153  152  153 1   
   154  152  161 1   
   155  153  154 1   
   156  153  156 1   
   157  153  162 1   
   158  154  155 2   
   159  154  167 1   
   160  156  157 1   
   161  156  163 1   
   162  156  164 1   
   163  157  158 1   
   164  157  165 1   
   165  157  166 1   
   166  158  159 1   
   167  158  160 1   
   168  167  168 1   
   169  167  172 1   
   170  168  169 1   
   171  168  170 1   
   172  168  171 1   
   173  174  175 1   
   174  174  176 1   
   175  177  178 1   
   176  177  179 1   
   177  180  181 1   
   178  180  182 1   
   179  183  184 1   
   180  183  185 1   
   181  186  187 1   
   182  186  188 1   
@<TRIPOS>SUBSTRUCTURE
     1 MOL         1 TEMP              0 ****  ****    0 ROOT
