@<TRIPOS>MOLECULE
MOL
  189   185     1     0     0
SMALL
resp


@<TRIPOS>ATOM
      1 C1         -3.9820    4.2990    3.0470 c3        1 MOL     -0.363927
      2 C2         -4.8860    3.4680    2.2410 c         1 MOL      0.803913
      3 O1         -4.5680    3.1060    1.0910 o         1 MOL     -0.647593
      4 H1         -4.3110    5.3370    3.0080 hc        1 MOL      0.094102
      5 H2         -3.9950    3.9530    4.0810 hc        1 MOL      0.094102
      6 H3         -2.9690    4.2230    2.6520 hc        1 MOL      0.094102
      7 N1         -6.1080    3.1210    2.7440 n         1 MOL     -0.688666
      8 C3         -7.0210    2.0320    2.2210 c3        1 MOL      0.312187
      9 C4         -6.1770    0.8040    1.8250 c         1 MOL      0.152292
     10 O2         -5.9260    0.6440    0.6160 o         1 MOL     -0.279479
     11 C5         -7.9730    2.6380    1.0720 c3        1 MOL     -0.115475
     12 C6         -7.2530    3.5800    0.0550 c         1 MOL      0.727643
     13 O3         -6.7450    3.0600   -0.9550 o         1 MOL     -0.736841
     14 O4         -7.4340    4.8460    0.2020 o         1 MOL     -0.736841
     15 H4         -6.1390    3.3090    3.7370 hn        1 MOL      0.301022
     16 H5         -7.6700    1.7430    3.0440 h1        1 MOL      0.004255
     17 H6         -8.7120    3.1870    1.6420 hc        1 MOL      0.009661
     18 H7         -8.3960    1.8050    0.5180 hc        1 MOL      0.009661
     19 N2         -5.6600    0.0900    2.8370 n         1 MOL     -0.380317
     20 C7         -4.8520   -1.1600    2.6880 c3        1 MOL      0.069439
     21 C8         -5.6090   -2.3040    1.9500 c         1 MOL      0.407327
     22 O5         -5.7600   -3.3420    2.6380 o         1 MOL     -0.552692
     23 C9         -3.4480   -0.8050    2.2580 c3        1 MOL      0.511302
     24 C10        -2.6120   -2.0300    2.0490 c3        1 MOL     -0.313961
     25 C11        -2.7690    0.1950    3.2000 c3        1 MOL      0.034426
     26 C12        -2.4800   -2.9890    3.2330 c3        1 MOL     -0.563647
     27 H8         -5.8600    0.3820    3.7750 hn        1 MOL      0.263346
     28 H9         -4.8640   -1.6210    3.6810 h1        1 MOL      0.010497
     29 H10        -3.4770   -0.1830    1.3580 hc        1 MOL     -0.171494
     30 H11        -1.5970   -1.7160    1.7960 hc        1 MOL      0.171925
     31 H12        -3.0000   -2.7130    1.2940 hc        1 MOL      0.171925
     32 H13        -1.7700    0.5240    2.9120 hc        1 MOL     -0.051294
     33 H14        -3.4270    1.0640    3.1830 hc        1 MOL     -0.051294
     34 H15        -2.7830   -0.2030    4.2130 hc        1 MOL     -0.051294
     35 H16        -3.4630   -3.3010    3.5880 hc        1 MOL      0.142628
     36 H17        -1.9750   -3.8930    2.8980 hc        1 MOL      0.142628
     37 H18        -1.9500   -2.4520    4.0210 hc        1 MOL      0.142628
     38 N3         -5.9940   -2.2870    0.6540 n         1 MOL     -0.092330
     39 C13        -6.7640   -3.3890    0.0560 c3        1 MOL      0.047280
     40 C14        -6.0130   -4.6480   -0.3210 c         1 MOL      0.524613
     41 O6         -6.5460   -5.7230    0.0470 o         1 MOL     -0.582020
     42 C15        -7.6410   -2.8730   -1.0810 c3        1 MOL     -0.194344
     43 C16        -8.6760   -1.8310   -0.6720 c         1 MOL      0.664123
     44 O7         -9.4910   -2.2200    0.2220 o         1 MOL     -0.699361
     45 O8         -8.6820   -0.6920   -1.2400 o         1 MOL     -0.699361
     46 H19        -5.6990   -1.5370    0.0470 hn        1 MOL      0.097272
     47 H20        -7.5450   -3.6940    0.7550 h1        1 MOL      0.058673
     48 H21        -8.1690   -3.6780   -1.5950 hc        1 MOL      0.060030
     49 H22        -7.0110   -2.4240   -1.8450 hc        1 MOL      0.060030
     50 N4         -4.8100   -4.7020   -0.9180 n         1 MOL     -0.481611
     51 C17        -3.9870   -3.7180   -1.5980 c3        1 MOL      0.132048
     52 C18        -4.5490   -3.1860   -2.9320 c         1 MOL      0.438915
     53 O9         -5.5730   -3.6350   -3.3690 o         1 MOL     -0.541635
     54 H23        -4.5050   -5.6570   -0.9970 hn        1 MOL      0.269283
     55 H24        -2.9740   -4.0150   -1.8840 h1        1 MOL      0.024937
     56 H25        -3.8480   -2.9010   -0.8860 h1        1 MOL      0.024937
     57 N5         -3.8830   -2.3510   -3.6650 n         1 MOL     -0.407638
     58 C19        -2.6730   -1.6450   -3.2930 c3        1 MOL      0.182547
     59 C20        -2.5900   -0.9960   -1.9400 c         1 MOL     -0.102338
     60 O10        -3.6320   -0.6230   -1.3950 o         1 MOL     -0.217033
     61 C21        -2.2420   -0.6700   -4.3680 c3        1 MOL     -0.395956
     62 C22        -3.3010    0.4080   -4.5290 c         1 MOL      0.745790
     63 O11        -4.0140    0.3840   -5.5180 o         1 MOL     -0.667420
     64 O12        -3.4560    1.1890   -3.5710 o         1 MOL     -0.667420
     65 H26        -4.2260   -2.1720   -4.5980 hn        1 MOL      0.317368
     66 H27        -1.8700   -2.3790   -3.3470 h1        1 MOL      0.028912
     67 H28        -2.0640   -1.2070   -5.2990 hc        1 MOL      0.083937
     68 H29        -1.3050   -0.2100   -4.0630 hc        1 MOL      0.083937
     69 N6         -1.4540   -0.8020   -1.2870 n         1 MOL     -0.039108
     70 C23        -0.0960   -1.4060   -1.4220 c3        1 MOL      0.057218
     71 C24         0.1160   -2.6990   -0.6200 c         1 MOL      0.518748
     72 O13        -0.8140   -3.1380    0.0640 o         1 MOL     -0.506889
     73 H30        -1.5130   -0.1830   -0.4890 hn        1 MOL      0.073541
     74 H31         0.6260   -0.6270   -1.1530 h1        1 MOL      0.035827
     75 H32         0.1500   -1.6870   -2.4490 h1        1 MOL      0.035827
     76 N7          1.2360   -3.3280   -0.7770 n         1 MOL     -0.482570
     77 C25         1.6050   -4.5900   -0.1040 c3        1 MOL     -0.023081
     78 C26         2.2990   -4.5310    1.2800 c         1 MOL      0.592431
     79 O14         2.3160   -5.5820    1.8640 o         1 MOL     -0.551146
     80 C27         2.1660   -5.4770   -1.1920 c3        1 MOL      0.080440
     81 C28         3.6000   -5.0580   -1.5000 c3        1 MOL     -0.463248
     82 C29         3.9150   -3.6030   -1.8860 c         1 MOL      0.592150
     83 N8          3.5280   -3.1780   -3.1090 n         1 MOL     -0.814591
     84 O15         4.4740   -2.8550   -1.0800 o         1 MOL     -0.505214
     85 H33         1.9820   -2.8100   -1.2060 hn        1 MOL      0.239699
     86 H34         0.6990   -5.0340    0.3030 h1        1 MOL      0.122696
     87 H35         1.5610   -5.4850   -2.0970 hc        1 MOL      0.039109
     88 H36         2.2050   -6.5200   -0.8780 hc        1 MOL      0.039109
     89 H37         3.9170   -5.6130   -2.3840 hc        1 MOL      0.145185
     90 H38         4.2670   -5.3150   -0.6840 hc        1 MOL      0.145185
     91 H39         2.9680   -3.7910   -3.6850 hn        1 MOL      0.399928
     92 H40         3.7430   -2.2090   -3.3080 hn        1 MOL      0.399928
     93 N9          2.6580   -3.4070    1.8020 n         1 MOL     -0.379307
     94 C30         3.2700   -3.1280    3.1320 c3        1 MOL     -0.157524
     95 C31         4.6830   -2.5170    2.9790 c         1 MOL      0.475736
     96 O16         5.2870   -2.2130    4.0260 o         1 MOL     -0.535085
     97 C32         2.3550   -2.2470    4.1240 c3        1 MOL      0.126625
     98 C33         0.9490   -2.8390    4.3230 c3        1 MOL     -0.069935
     99 C34         2.0660   -0.8650    3.4420 c3        1 MOL     -0.069935
    100 H41         2.6880   -2.5700    1.2310 hn        1 MOL      0.295394
    101 H42         3.4710   -4.0900    3.5910 h1        1 MOL      0.149162
    102 H43         2.8050   -2.0510    5.1010 hc        1 MOL      0.037419
    103 H44         0.2690   -2.6260    3.4940 hc        1 MOL      0.007736
    104 H45         0.9940   -3.9060    4.5250 hc        1 MOL      0.007736
    105 H46         0.5550   -2.3470    5.2140 hc        1 MOL      0.007736
    106 H47         1.3400   -0.2560    3.9730 hc        1 MOL      0.007736
    107 H48         3.0300   -0.3560    3.4590 hc        1 MOL      0.007736
    108 H49         1.8820   -0.8820    2.3740 hc        1 MOL      0.007736
    109 N10         5.2780   -2.3010    1.7690 n         1 MOL     -0.120465
    110 C35         6.6440   -1.8730    1.6020 c3        1 MOL     -0.152132
    111 C36         6.7870   -0.3340    1.2680 c         1 MOL      0.597838
    112 O17         7.7200    0.3150    1.6720 o         1 MOL     -0.524904
    113 C37         7.4050   -2.6680    0.5480 c3        1 MOL     -0.048976
    114 C38         7.2170   -4.1930    0.6430 c         1 MOL      0.502492
    115 N11         6.7830   -4.7660   -0.4340 n         1 MOL     -0.678944
    116 O18         7.2710   -4.8410    1.7020 o         1 MOL     -0.527146
    117 H50         4.7530   -2.3880    0.9040 hn        1 MOL      0.117088
    118 H51         7.1340   -2.0380    2.5670 h1        1 MOL      0.110296
    119 H52         8.4510   -2.4760    0.7680 hc        1 MOL      0.059997
    120 H53         7.0680   -2.4470   -0.4680 hc        1 MOL      0.059997
    121 H54         6.7910   -4.3770   -1.3650 hn        1 MOL      0.324036
    122 H55         6.5330   -5.7480   -0.4320 hn        1 MOL      0.324036
    123 N12         5.8080    0.1560    0.5130 n         1 MOL     -0.488922
    124 C39         5.9270    1.4060   -0.2130 c3        1 MOL      0.281099
    125 C40         4.6370    2.2620   -0.3490 c         1 MOL      0.402252
    126 O19         3.4980    1.7750   -0.6280 o         1 MOL     -0.470433
    127 C41         6.6600    1.2680   -1.5660 c3        1 MOL     -0.026619
    128 C42         8.0230    0.5760   -1.6320 ca        1 MOL     -0.012442
    129 C43         9.1580    1.1790   -1.0380 ca        1 MOL     -0.092511
    130 C44         8.2350   -0.6550   -2.3480 ca        1 MOL     -0.092511
    131 C45        10.4000    0.5440   -1.1600 ca        1 MOL     -0.299771
    132 C46         9.4490   -1.3620   -2.3480 ca        1 MOL     -0.299771
    133 C47        10.6240   -0.7230   -1.7320 ca        1 MOL      0.337017
    134 O20        11.8540   -1.3170   -1.7490 oh        1 MOL     -0.503012
    135 H56         4.8830   -0.2720    0.4880 hn        1 MOL      0.219604
    136 H57         6.4580    2.0590    0.4830 h1        1 MOL     -0.011038
    137 H58         6.7270    2.2860   -1.9440 hc        1 MOL      0.018211
    138 H59         6.0400    0.7390   -2.2860 hc        1 MOL      0.018211
    139 H60         9.1720    2.1380   -0.5590 ha        1 MOL      0.135967
    140 H61         7.3940   -1.0190   -2.9200 ha        1 MOL      0.135967
    141 H62        11.2930    1.0590   -0.8370 ha        1 MOL      0.137736
    142 H63         9.4930   -2.3460   -2.8060 ha        1 MOL      0.137736
    143 H64        12.4630   -0.7510   -1.2720 ho        1 MOL      0.372862
    144 N13         4.8170    3.6290   -0.2010 n         1 MOL     -0.577500
    145 C48         3.9450    4.7660   -0.4750 c3        1 MOL     -0.015496
    146 C49         2.7010    4.9550    0.4360 c         1 MOL      0.260263
    147 O21         2.1040    6.0530    0.5210 o         1 MOL     -0.460913
    148 C50         3.6300    4.7580   -2.0610 c3        1 MOL      0.079539
    149 C51         4.7870    4.5800   -3.1020 c3        1 MOL     -0.468102
    150 C52         5.8040    5.7580   -3.0760 c         1 MOL      0.795891
    151 O22         6.9340    5.5560   -2.7520 o         1 MOL     -0.749781
    152 O23         5.4640    6.9740   -3.3830 o         1 MOL     -0.749781
    153 H65         5.7680    3.8690    0.0060 hn        1 MOL      0.354965
    154 H66         4.5370    5.6650   -0.3310 h1        1 MOL      0.142046
    155 H67         3.0520    5.6590   -2.2480 hc        1 MOL      0.035640
    156 H68         2.9990    3.8910   -2.2660 hc        1 MOL      0.035640
    157 H69         4.3150    4.4540   -4.0820 hc        1 MOL      0.114415
    158 H70         5.3750    3.7340   -2.7630 hc        1 MOL      0.114415
    159 N14         2.2800    3.9280    1.2130 n         1 MOL      0.015706
    160 C53         0.9800    3.9460    1.9190 c3        1 MOL     -0.190661
    161 C54         1.2190    4.5620    3.3220 c         1 MOL      0.450808
    162 O24         0.3790    5.2160    3.9870 o         1 MOL     -0.525731
    163 C55         0.3970    2.4980    1.9780 c3        1 MOL      0.030555
    164 C56         0.1290    1.9190    0.6200 c3        1 MOL      0.365707
    165 C57        -1.1490    2.5080   -0.0880 c         1 MOL      0.585683
    166 O25        -2.1180    1.7850   -0.4330 o         1 MOL     -0.642361
    167 O26        -1.2470    3.7600   -0.2800 o         1 MOL     -0.642361
    168 H71         2.8820    3.1430    1.4140 hn        1 MOL      0.210767
    169 H72         0.2920    4.6110    1.3990 h1        1 MOL      0.172416
    170 H73        -0.4570    2.4480    2.6520 hc        1 MOL     -0.024134
    171 H74         1.2190    1.8640    2.3290 hc        1 MOL     -0.024134
    172 H75        -0.0490    0.8620    0.7830 hc        1 MOL     -0.146875
    173 H76         0.9540    2.0730   -0.0800 hc        1 MOL     -0.146875
    174 N15         2.4920    4.4980    3.7150 n         1 MOL     -0.230976
    175 C58         3.1000    5.3210    4.8210 c3        1 MOL     -0.378668
    176 H77         2.7150    6.3390    4.7680 h1        1 MOL      0.145070
    177 H78         2.8400    4.8840    5.7860 h1        1 MOL      0.145070
    178 H79         4.1850    5.3370    4.7090 h1        1 MOL      0.145070
    179 H80         3.1050    4.0110    3.0780 hn        1 MOL      0.170315
    180 Ca1        -4.5050    1.9020   -1.3110 Ca        1 MOL      1.669232
    181 O27        -6.3700    0.3960   -2.4270 oh        1 MOL     -0.804058
    182 H81        -7.1130    0.1000   -1.9140 ho        1 MOL      0.381994
    183 H82        -6.6980    0.4120   -3.3280 ho        1 MOL      0.381994
    184 O28        -5.6670    3.5130   -3.7140 oh        1 MOL     -0.804058
    185 H83        -5.8810    4.3080   -3.2130 ho        1 MOL      0.381994
    186 H84        -6.5150    3.1750   -3.9990 ho        1 MOL      0.381994
    187 O29        -3.4340    4.4500   -1.5750 oh        1 MOL     -0.804058
    188 H85        -3.7990    5.1270   -1.0070 ho        1 MOL      0.381994
    189 H86        -2.5770    4.2520   -1.1800 ho        1 MOL      0.381994
@<TRIPOS>BOND
     1    1    2 1   
     2    1    4 1   
     3    1    5 1   
     4    1    6 1   
     5    2    3 2   
     6    2    7 1   
     7    7    8 1   
     8    7   15 1   
     9    8    9 1   
    10    8   11 1   
    11    8   16 1   
    12    9   10 2   
    13    9   19 1   
    14   11   12 1   
    15   11   17 1   
    16   11   18 1   
    17   12   13 1   
    18   12   14 1   
    19   19   20 1   
    20   19   27 1   
    21   20   21 1   
    22   20   23 1   
    23   20   28 1   
    24   21   22 2   
    25   21   38 1   
    26   23   24 1   
    27   23   25 1   
    28   23   29 1   
    29   24   26 1   
    30   24   30 1   
    31   24   31 1   
    32   25   32 1   
    33   25   33 1   
    34   25   34 1   
    35   26   35 1   
    36   26   36 1   
    37   26   37 1   
    38   38   39 1   
    39   38   46 1   
    40   39   40 1   
    41   39   42 1   
    42   39   47 1   
    43   40   41 2   
    44   40   50 1   
    45   42   43 1   
    46   42   48 1   
    47   42   49 1   
    48   43   44 1   
    49   43   45 1   
    50   50   51 1   
    51   50   54 1   
    52   51   52 1   
    53   51   55 1   
    54   51   56 1   
    55   52   53 2   
    56   52   57 1   
    57   57   58 1   
    58   57   65 1   
    59   58   59 1   
    60   58   61 1   
    61   58   66 1   
    62   59   60 2   
    63   59   69 1   
    64   61   62 1   
    65   61   67 1   
    66   61   68 1   
    67   62   63 1   
    68   62   64 1   
    69   69   70 1   
    70   69   73 1   
    71   70   71 1   
    72   70   74 1   
    73   70   75 1   
    74   71   72 2   
    75   71   76 1   
    76   76   77 1   
    77   76   85 1   
    78   77   78 1   
    79   77   80 1   
    80   77   86 1   
    81   78   79 2   
    82   78   93 1   
    83   80   81 1   
    84   80   87 1   
    85   80   88 1   
    86   81   82 1   
    87   81   89 1   
    88   81   90 1   
    89   82   83 1   
    90   82   84 2   
    91   83   91 1   
    92   83   92 1   
    93   93   94 1   
    94   93  100 1   
    95   94   95 1   
    96   94   97 1   
    97   94  101 1   
    98   95   96 2   
    99   95  109 1   
   100   97   98 1   
   101   97   99 1   
   102   97  102 1   
   103   98  103 1   
   104   98  104 1   
   105   98  105 1   
   106   99  106 1   
   107   99  107 1   
   108   99  108 1   
   109  109  110 1   
   110  109  117 1   
   111  110  111 1   
   112  110  113 1   
   113  110  118 1   
   114  111  112 2   
   115  111  123 1   
   116  113  114 1   
   117  113  119 1   
   118  113  120 1   
   119  114  115 1   
   120  114  116 2   
   121  115  121 1   
   122  115  122 1   
   123  123  124 1   
   124  123  135 1   
   125  124  125 1   
   126  124  127 1   
   127  124  136 1   
   128  125  126 2   
   129  125  144 1   
   130  127  128 1   
   131  127  137 1   
   132  127  138 1   
   133  128  129 ar  
   134  128  130 ar  
   135  129  131 ar  
   136  129  139 1   
   137  130  132 ar  
   138  130  140 1   
   139  131  133 ar  
   140  131  141 1   
   141  132  133 ar  
   142  132  142 1   
   143  133  134 1   
   144  134  143 1   
   145  144  145 1   
   146  144  153 1   
   147  145  146 1   
   148  145  148 1   
   149  145  154 1   
   150  146  147 2   
   151  146  159 1   
   152  148  149 1   
   153  148  155 1   
   154  148  156 1   
   155  149  150 1   
   156  149  157 1   
   157  149  158 1   
   158  150  151 1   
   159  150  152 1   
   160  159  160 1   
   161  159  168 1   
   162  160  161 1   
   163  160  163 1   
   164  160  169 1   
   165  161  162 2   
   166  161  174 1   
   167  163  164 1   
   168  163  170 1   
   169  163  171 1   
   170  164  165 1   
   171  164  172 1   
   172  164  173 1   
   173  165  166 1   
   174  165  167 1   
   175  174  175 1   
   176  174  179 1   
   177  175  176 1   
   178  175  177 1   
   179  175  178 1   
   180  181  182 1   
   181  181  183 1   
   182  184  185 1   
   183  184  186 1   
   184  187  188 1   
   185  187  189 1   
@<TRIPOS>SUBSTRUCTURE
     1 MOL         1 TEMP              0 ****  ****    0 ROOT
