@<TRIPOS>MOLECULE
MOL
  195   189     1     0     0
SMALL
resp


@<TRIPOS>ATOM
      1 C1         -3.7030    3.6110   -2.7670 c3        1 MOL     -0.231816
      2 C2         -2.5530    3.9450   -1.7850 c         1 MOL      0.704421
      3 O1         -1.8610    2.9690   -1.3930 o         1 MOL     -0.490499
      4 H1         -4.3100    4.5010   -2.9300 hc        1 MOL      0.045332
      5 H2         -3.2850    3.2770   -3.7170 hc        1 MOL      0.045332
      6 H3         -4.3250    2.8210   -2.3450 hc        1 MOL      0.045332
      7 N1         -2.3520    5.1740   -1.2800 n         1 MOL     -0.631941
      8 C3         -1.4230    5.4480   -0.1750 c3        1 MOL     -0.233222
      9 C4          0.0690    5.1220   -0.4210 c         1 MOL      0.855448
     10 O2          0.7380    4.4850    0.4080 o         1 MOL     -0.554283
     11 C5         -1.8390    4.8820    1.2310 c3        1 MOL     -0.586379
     12 C6         -3.3460    4.6800    1.4560 c         1 MOL      0.896094
     13 O3         -4.1720    5.5160    0.9850 o         1 MOL     -0.752925
     14 O4         -3.8180    3.8090    2.1970 o         1 MOL     -0.752925
     15 H4         -2.8280    5.9980   -1.6330 hn        1 MOL      0.354538
     16 H5         -1.4880    6.5220    0.0380 h1        1 MOL      0.155693
     17 H6         -1.4570    5.6020    1.9690 hc        1 MOL      0.206707
     18 H7         -1.3810    3.9080    1.4060 hc        1 MOL      0.206707
     19 N2          0.6190    5.4670   -1.5640 n         1 MOL     -0.812811
     20 C7          2.0240    5.0620   -1.9810 c3        1 MOL     -0.011299
     21 C8          2.9440    6.2760   -1.9870 c         1 MOL      0.751144
     22 O5          2.5400    7.4190   -2.1780 o         1 MOL     -0.627186
     23 C9          1.9170    4.3770   -3.3280 c3        1 MOL      0.062781
     24 C10         1.6000    5.3270   -4.4910 c3        1 MOL      0.148513
     25 C11         0.7770    3.3590   -3.4120 c3        1 MOL     -0.581363
     26 C12         2.8330    5.7960   -5.3440 c3        1 MOL     -0.265876
     27 H8          0.0530    6.0630   -2.1430 hn        1 MOL      0.387208
     28 H9          2.3850    4.3130   -1.2770 h1        1 MOL      0.189335
     29 H10         2.8560    3.9000   -3.5860 hc        1 MOL      0.110037
     30 H11         0.8430    6.0850   -4.3080 hc        1 MOL     -0.026067
     31 H12         1.0400    4.7730   -5.2370 hc        1 MOL     -0.026067
     32 H13         0.8250    2.7380   -4.3070 hc        1 MOL      0.163643
     33 H14         0.9420    2.7380   -2.5300 hc        1 MOL      0.163643
     34 H15        -0.2360    3.7340   -3.4200 hc        1 MOL      0.163643
     35 H16         2.6140    6.3280   -6.2740 hc        1 MOL      0.058118
     36 H17         3.4190    6.3710   -4.6240 hc        1 MOL      0.058118
     37 H18         3.4030    4.8930   -5.5830 hc        1 MOL      0.058118
     38 N3          4.2720    6.1870   -1.8900 n         1 MOL     -0.667761
     39 C13         5.0630    4.9710   -1.6810 c3        1 MOL     -0.274402
     40 C14         5.7550    5.0350   -0.3040 c         1 MOL      0.759315
     41 O6          6.7390    5.7530   -0.0750 o         1 MOL     -0.554628
     42 C15         5.9560    4.7920   -2.9360 c3        1 MOL     -0.055399
     43 C16         6.8820    3.5750   -2.8380 c         1 MOL      0.748432
     44 O7          6.6360    2.6940   -1.9640 o         1 MOL     -0.733836
     45 O8          7.8690    3.5340   -3.5580 o         1 MOL     -0.733836
     46 H19         4.8610    6.9740   -2.0960 hn        1 MOL      0.389637
     47 H20         4.4260    4.0850   -1.6840 h1        1 MOL      0.064100
     48 H21         6.6190    5.6410   -3.0780 hc        1 MOL      0.010869
     49 H22         5.3640    4.6910   -3.8500 hc        1 MOL      0.010869
     50 N4          5.2570    4.3040    0.7070 n         1 MOL     -0.451207
     51 C17         5.7880    4.4490    2.1160 c3        1 MOL      0.025846
     52 C18         6.4990    3.2010    2.6760 c         1 MOL      0.576721
     53 O9          7.6900    3.2530    2.9820 o         1 MOL     -0.551690
     54 H23         4.5090    3.6520    0.5510 hn        1 MOL      0.279350
     55 H24         4.8570    4.5970    2.6590 h1        1 MOL      0.024449
     56 H25         6.4400    5.3030    2.3120 h1        1 MOL      0.024449
     57 N5          5.8640    2.0930    2.5350 n         1 MOL     -0.518010
     58 C19         6.1010    0.9050    3.3300 c3        1 MOL      0.053506
     59 C20         6.9420   -0.0720    2.5320 c         1 MOL      0.663000
     60 O10         7.8990   -0.6110    3.0670 o         1 MOL     -0.628625
     61 C21         4.8500    0.2140    3.7770 c3        1 MOL     -0.136713
     62 C22         3.8060   -0.1590    2.6680 c         1 MOL      0.702604
     63 O11         2.8990    0.6650    2.3680 o         1 MOL     -0.682297
     64 O12         3.9850   -1.2550    2.1200 o         1 MOL     -0.682297
     65 H26         4.9140    2.2030    2.2020 hn        1 MOL      0.274363
     66 H27         6.6180    1.0750    4.2710 h1        1 MOL      0.047846
     67 H28         4.2330    0.6490    4.5790 hc        1 MOL      0.018959
     68 H29         5.2020   -0.7240    4.2070 hc        1 MOL      0.018959
     69 N6          6.6770   -0.3080    1.1980 n         1 MOL     -0.210559
     70 C23         7.4270   -1.1710    0.3440 c3        1 MOL     -0.304061
     71 C24         7.2620   -2.6730    0.5540 c         1 MOL      0.430914
     72 O13         7.9190   -3.4810   -0.0660 o         1 MOL     -0.567261
     73 H30         5.8680    0.1410    0.8000 hn        1 MOL      0.237715
     74 H31         8.4780   -0.9660    0.5140 h1        1 MOL      0.143010
     75 H32         7.2420   -1.0570   -0.7270 h1        1 MOL      0.143010
     76 N7          6.2110   -3.0360    1.2450 n         1 MOL      0.232239
     77 C25         5.7200   -4.4090    1.4330 c3        1 MOL     -0.081649
     78 C26         5.4490   -5.2110    0.1510 c         1 MOL      0.433482
     79 O14         5.5320   -6.4320    0.0530 o         1 MOL     -0.528737
     80 C27         6.6930   -5.2460    2.3240 c3        1 MOL      0.043485
     81 C28         7.3870   -4.5630    3.5060 c3        1 MOL     -0.190815
     82 C29         6.5380   -3.9400    4.5860 c         1 MOL      0.580590
     83 N8          6.6340   -2.6510    4.8970 n         1 MOL     -0.701919
     84 O15         5.7960   -4.6110    5.2960 o         1 MOL     -0.563220
     85 H33         5.5860   -2.3780    1.7020 hn        1 MOL     -0.056244
     86 H34         4.7490   -4.3760    1.9280 h1        1 MOL      0.123445
     87 H35         7.5580   -5.5320    1.7280 hc        1 MOL      0.014010
     88 H36         6.2580   -6.1100    2.8220 hc        1 MOL      0.014010
     89 H37         8.0260   -3.8510    2.9830 hc        1 MOL      0.044619
     90 H38         8.0750   -5.3000    3.9230 hc        1 MOL      0.044619
     91 H39         7.4600   -2.2130    4.4960 hn        1 MOL      0.325359
     92 H40         6.0850   -2.2900    5.6620 hn        1 MOL      0.325359
     93 N9          4.9440   -4.4930   -0.8720 n         1 MOL     -0.374100
     94 C30         4.5980   -4.9650   -2.2340 c3        1 MOL      0.003183
     95 C31         3.2010   -4.5730   -2.7860 c         1 MOL      0.384837
     96 O16         2.7090   -5.1460   -3.7910 o         1 MOL     -0.554650
     97 C32         5.6800   -4.4410   -3.2120 c3        1 MOL      0.217811
     98 C33         5.9330   -2.9490   -3.3670 c3        1 MOL     -0.225204
     99 C34         7.0250   -5.1350   -2.9680 c3        1 MOL     -0.225204
    100 H41         4.9040   -3.4890   -0.7310 hn        1 MOL      0.239467
    101 H42         4.5950   -6.0470   -2.2800 h1        1 MOL      0.108209
    102 H43         5.4230   -4.8170   -4.1920 hc        1 MOL     -0.024334
    103 H44         6.5820   -2.6190   -2.5570 hc        1 MOL      0.051594
    104 H45         6.3090   -2.6910   -4.3550 hc        1 MOL      0.051594
    105 H46         5.0190   -2.3870   -3.1790 hc        1 MOL      0.051594
    106 H47         7.5790   -5.0770   -3.9080 hc        1 MOL      0.051594
    107 H48         7.6210   -4.5930   -2.2410 hc        1 MOL      0.051594
    108 H49         7.0090   -6.1990   -2.7230 hc        1 MOL      0.051594
    109 N10         2.5320   -3.6130   -2.1600 n         1 MOL     -0.162112
    110 C35         1.1340   -3.1690   -2.4000 c3        1 MOL      0.115799
    111 C36         0.3240   -3.0970   -1.1580 c         1 MOL      0.469722
    112 O17         0.7500   -2.9200   -0.0360 o         1 MOL     -0.470399
    113 C37         1.2100   -1.7910   -3.1160 c3        1 MOL     -0.226307
    114 C38        -0.1150   -1.2870   -3.7880 c         1 MOL      0.680028
    115 N11        -0.7600   -0.2810   -3.2950 n         1 MOL     -0.824129
    116 O18        -0.5140   -1.7990   -4.7900 o         1 MOL     -0.591906
    117 H50         2.9170   -3.3170   -1.2740 hn        1 MOL      0.124546
    118 H51         0.5720   -3.8920   -2.9890 h1        1 MOL      0.057364
    119 H52         1.9890   -1.8230   -3.8900 hc        1 MOL      0.079778
    120 H53         1.5070   -1.0040   -2.4260 hc        1 MOL      0.079778
    121 H54        -0.5010    0.1640   -2.4280 hn        1 MOL      0.375313
    122 H55        -1.5300   -0.0390   -3.8980 hn        1 MOL      0.375313
    123 N12        -1.0410   -3.2390   -1.3820 n         1 MOL     -0.435728
    124 C39        -2.0710   -3.2760   -0.3970 c3        1 MOL      0.066862
    125 C40        -3.4890   -3.4730   -1.0080 c         1 MOL      0.608678
    126 O19        -3.6910   -3.1720   -2.1600 o         1 MOL     -0.553143
    127 C41        -2.1630   -1.9980    0.4780 c3        1 MOL     -0.208332
    128 C42        -2.4430   -2.2920    1.9440 ca        1 MOL     -0.047392
    129 C43        -3.6800   -2.1510    2.5480 ca        1 MOL     -0.010619
    130 C44        -1.3760   -2.6860    2.8010 ca        1 MOL     -0.010619
    131 C45        -3.9190   -2.4530    3.9460 ca        1 MOL     -0.354074
    132 C46        -1.5820   -2.9110    4.1680 ca        1 MOL     -0.354074
    133 C47        -2.8540   -2.8270    4.7630 ca        1 MOL      0.387451
    134 O20        -3.0360   -3.0240    6.0810 oh        1 MOL     -0.493431
    135 H56        -1.3620   -3.4760   -2.3110 hn        1 MOL      0.268961
    136 H57        -1.8330   -4.1480    0.2060 h1        1 MOL      0.070845
    137 H58        -2.9320   -1.3240    0.0900 hc        1 MOL      0.119373
    138 H59        -1.2320   -1.4440    0.3570 hc        1 MOL      0.119373
    139 H60        -4.5140   -1.7000    2.0250 ha        1 MOL      0.137587
    140 H61        -0.4220   -2.8670    2.3280 ha        1 MOL      0.137587
    141 H62        -4.9440   -2.2590    4.2480 ha        1 MOL      0.159999
    142 H63        -0.7480   -3.2240    4.7770 ha        1 MOL      0.159999
    143 H64        -3.9470   -2.9620    6.3520 ho        1 MOL      0.353070
    144 N13        -4.4350   -3.9380   -0.2290 n         1 MOL     -0.662939
    145 C48        -5.7430   -4.4640   -0.6960 c3        1 MOL      0.286352
    146 C49        -6.9070   -4.0010    0.3020 c         1 MOL      0.482223
    147 O21        -7.3390   -4.7810    1.1680 o         1 MOL     -0.536404
    148 C50        -5.7590   -5.9950   -0.7650 c3        1 MOL      0.215075
    149 C51        -6.9900   -6.6370   -1.4390 c3        1 MOL     -0.527610
    150 C52        -6.7980   -8.1740   -1.5510 c         1 MOL      0.772781
    151 O22        -6.2060   -8.8210   -0.6620 o         1 MOL     -0.708095
    152 O23        -7.3150   -8.7830   -2.5440 o         1 MOL     -0.708095
    153 H65        -4.1070   -4.1400    0.6950 hn        1 MOL      0.255364
    154 H66        -5.9400   -4.0910   -1.7010 h1        1 MOL      0.044181
    155 H67        -5.6120   -6.4510    0.2160 hc        1 MOL     -0.018441
    156 H68        -4.8360   -6.2790   -1.2700 hc        1 MOL     -0.018441
    157 H69        -7.1470   -6.1400   -2.3900 hc        1 MOL      0.120341
    158 H70        -7.8060   -6.3920   -0.7640 hc        1 MOL      0.120341
    159 N14        -7.3490   -2.7380    0.2020 n         1 MOL     -0.634546
    160 C53        -6.9820   -1.6840   -0.7570 c3        1 MOL      0.041037
    161 C54        -7.4380   -2.1400   -2.1690 c         1 MOL      0.550425
    162 O24        -8.5090   -2.7680   -2.3160 o         1 MOL     -0.528312
    163 C55        -7.5670   -0.3330   -0.2420 c3        1 MOL     -0.521961
    164 C56        -7.0900   -0.1030    1.2060 c3        1 MOL      0.112226
    165 C57        -7.2900    1.3540    1.6030 c         1 MOL      0.737006
    166 O25        -8.3930    2.0090    1.6190 o         1 MOL     -0.772674
    167 O26        -6.2830    1.9880    2.0870 o         1 MOL     -0.772674
    168 H71        -8.0970   -2.4510    0.8080 hn        1 MOL      0.390846
    169 H72        -5.9110   -1.5400   -0.6690 h1        1 MOL      0.136724
    170 H73        -8.6600   -0.3960   -0.1910 hc        1 MOL      0.144911
    171 H74        -7.3000    0.5320   -0.8630 hc        1 MOL      0.144911
    172 H75        -6.0400   -0.2790    1.4430 hc        1 MOL     -0.011289
    173 H76        -7.5990   -0.7100    1.9600 hc        1 MOL     -0.011289
    174 N15        -6.6090   -1.9020   -3.1580 n         1 MOL     -0.332262
    175 C58        -6.6910   -2.3890   -4.5400 c3        1 MOL     -0.180491
    176 H77        -7.4880   -1.8620   -5.0630 h1        1 MOL      0.094890
    177 H78        -5.7430   -2.2080   -5.0470 h1        1 MOL      0.094890
    178 H79        -6.9040   -3.4580   -4.5370 h1        1 MOL      0.094890
    179 H80        -5.7320   -1.4890   -2.8730 hn        1 MOL      0.250737
    180 Ca1        -6.3010    4.5480    1.9680 Ca        1 MOL      1.784262
    181 O27        -8.5660    5.7300    3.0000 oh        1 MOL     -0.847736
    182 H81        -9.1900    5.8630    2.2910 ho        1 MOL      0.404583
    183 H82        -8.8210    6.3670    3.6780 ho        1 MOL      0.404583
    184 O28        -5.6600    6.4340    3.6450 oh        1 MOL     -0.847736
    185 H83        -5.3470    6.1440    4.5020 ho        1 MOL      0.404583
    186 H84        -6.0670    7.2920    3.8120 ho        1 MOL      0.404583
    187 O29        -7.8000    6.3740    0.2930 oh        1 MOL     -0.847736
    188 H85        -8.5160    6.1050   -0.2910 ho        1 MOL      0.404583
    189 H86        -7.3870    7.1060   -0.1560 ho        1 MOL      0.404583
    190 O30        -6.9360    3.9420   -0.4610 oh        1 MOL     -0.847736
    191 H87        -7.8680    3.7550   -0.5470 ho        1 MOL      0.404583
    192 H88        -6.5980    3.8970   -1.3670 ho        1 MOL      0.404583
    193 O31        -6.1220    3.6690    4.5490 oh        1 MOL     -0.847736
    194 H89        -6.0470    2.7290    4.6920 ho        1 MOL      0.404583
    195 H90        -6.3310    4.0350    5.4110 ho        1 MOL      0.404583
@<TRIPOS>BOND
     1    1    2 1   
     2    1    4 1   
     3    1    5 1   
     4    1    6 1   
     5    2    3 2   
     6    2    7 1   
     7    7    8 1   
     8    7   15 1   
     9    8    9 1   
    10    8   11 1   
    11    8   16 1   
    12    9   10 2   
    13    9   19 1   
    14   11   12 1   
    15   11   17 1   
    16   11   18 1   
    17   12   13 1   
    18   12   14 1   
    19   19   20 1   
    20   19   27 1   
    21   20   21 1   
    22   20   23 1   
    23   20   28 1   
    24   21   22 2   
    25   21   38 1   
    26   23   24 1   
    27   23   25 1   
    28   23   29 1   
    29   24   26 1   
    30   24   30 1   
    31   24   31 1   
    32   25   32 1   
    33   25   33 1   
    34   25   34 1   
    35   26   35 1   
    36   26   36 1   
    37   26   37 1   
    38   38   39 1   
    39   38   46 1   
    40   39   40 1   
    41   39   42 1   
    42   39   47 1   
    43   40   41 2   
    44   40   50 1   
    45   42   43 1   
    46   42   48 1   
    47   42   49 1   
    48   43   44 1   
    49   43   45 1   
    50   50   51 1   
    51   50   54 1   
    52   51   52 1   
    53   51   55 1   
    54   51   56 1   
    55   52   53 2   
    56   52   57 1   
    57   57   58 1   
    58   57   65 1   
    59   58   59 1   
    60   58   61 1   
    61   58   66 1   
    62   59   60 2   
    63   59   69 1   
    64   61   62 1   
    65   61   67 1   
    66   61   68 1   
    67   62   63 1   
    68   62   64 1   
    69   69   70 1   
    70   69   73 1   
    71   70   71 1   
    72   70   74 1   
    73   70   75 1   
    74   71   72 2   
    75   71   76 1   
    76   76   77 1   
    77   76   85 1   
    78   77   78 1   
    79   77   80 1   
    80   77   86 1   
    81   78   79 2   
    82   78   93 1   
    83   80   81 1   
    84   80   87 1   
    85   80   88 1   
    86   81   82 1   
    87   81   89 1   
    88   81   90 1   
    89   82   83 1   
    90   82   84 2   
    91   83   91 1   
    92   83   92 1   
    93   93   94 1   
    94   93  100 1   
    95   94   95 1   
    96   94   97 1   
    97   94  101 1   
    98   95   96 2   
    99   95  109 1   
   100   97   98 1   
   101   97   99 1   
   102   97  102 1   
   103   98  103 1   
   104   98  104 1   
   105   98  105 1   
   106   99  106 1   
   107   99  107 1   
   108   99  108 1   
   109  109  110 1   
   110  109  117 1   
   111  110  111 1   
   112  110  113 1   
   113  110  118 1   
   114  111  112 2   
   115  111  123 1   
   116  113  114 1   
   117  113  119 1   
   118  113  120 1   
   119  114  115 1   
   120  114  116 2   
   121  115  121 1   
   122  115  122 1   
   123  123  124 1   
   124  123  135 1   
   125  124  125 1   
   126  124  127 1   
   127  124  136 1   
   128  125  126 2   
   129  125  144 1   
   130  127  128 1   
   131  127  137 1   
   132  127  138 1   
   133  128  129 ar  
   134  128  130 ar  
   135  129  131 ar  
   136  129  139 1   
   137  130  132 ar  
   138  130  140 1   
   139  131  133 ar  
   140  131  141 1   
   141  132  133 ar  
   142  132  142 1   
   143  133  134 1   
   144  134  143 1   
   145  144  145 1   
   146  144  153 1   
   147  145  146 1   
   148  145  148 1   
   149  145  154 1   
   150  146  147 2   
   151  146  159 1   
   152  148  149 1   
   153  148  155 1   
   154  148  156 1   
   155  149  150 1   
   156  149  157 1   
   157  149  158 1   
   158  150  151 1   
   159  150  152 1   
   160  159  160 1   
   161  159  168 1   
   162  160  161 1   
   163  160  163 1   
   164  160  169 1   
   165  161  162 2   
   166  161  174 1   
   167  163  164 1   
   168  163  170 1   
   169  163  171 1   
   170  164  165 1   
   171  164  172 1   
   172  164  173 1   
   173  165  166 1   
   174  165  167 1   
   175  174  175 1   
   176  174  179 1   
   177  175  176 1   
   178  175  177 1   
   179  175  178 1   
   180  181  182 1   
   181  181  183 1   
   182  184  185 1   
   183  184  186 1   
   184  187  188 1   
   185  187  189 1   
   186  190  191 1   
   187  190  192 1   
   188  193  194 1   
   189  193  195 1   
@<TRIPOS>SUBSTRUCTURE
     1 MOL         1 TEMP              0 ****  ****    0 ROOT
