@<TRIPOS>MOLECULE
MOL
  189   185     1     0     0
SMALL
resp


@<TRIPOS>ATOM
      1 C1         -4.9260   -4.7780   -2.5550 c3        1 MOL     -0.374051
      2 C2         -5.5950   -3.6080   -1.8630 c         1 MOL      0.702765
      3 O1         -4.9640   -3.0890   -0.9620 o         1 MOL     -0.604914
      4 H1         -3.9640   -4.4620   -2.9560 hc        1 MOL      0.097518
      5 H2         -4.7740   -5.5850   -1.8390 hc        1 MOL      0.097518
      6 H3         -5.5600   -5.1300   -3.3700 hc        1 MOL      0.097518
      7 N1         -6.8380   -3.2010   -2.2890 n         1 MOL     -0.687747
      8 C3         -7.4360   -1.9630   -1.8090 c3        1 MOL      0.190767
      9 C4         -6.3980   -0.8470   -1.6030 c         1 MOL      0.438879
     10 O2         -6.1090   -0.3830   -0.4960 o         1 MOL     -0.561770
     11 C5         -8.3190   -2.3150   -0.6750 c3        1 MOL     -0.052804
     12 C6         -7.8180   -3.3080    0.4120 c         1 MOL      0.726840
     13 O3         -6.8360   -2.9960    1.1040 o         1 MOL     -0.728640
     14 O4         -8.5110   -4.3370    0.6850 o         1 MOL     -0.728640
     15 H4         -7.2970   -3.8240   -2.9410 hn        1 MOL      0.358198
     16 H5         -8.0510   -1.5520   -2.6050 h1        1 MOL      0.032718
     17 H6         -9.3060   -2.6390   -0.9890 hc        1 MOL     -0.007438
     18 H7         -8.5030   -1.3460   -0.1920 hc        1 MOL     -0.007438
     19 N2         -5.9580   -0.2730   -2.7250 n         1 MOL     -0.586810
     20 C7         -4.9090    0.8590   -2.8250 c3        1 MOL      0.116956
     21 C8         -5.2380    2.2100   -2.2130 c         1 MOL      0.502489
     22 O5         -5.0190    3.2580   -2.8770 o         1 MOL     -0.575447
     23 C9         -3.4450    0.3130   -2.5850 c3        1 MOL      0.365509
     24 C10        -2.4280    1.3780   -2.9380 c3        1 MOL     -0.273672
     25 C11        -3.1120   -1.0590   -3.1930 c3        1 MOL      0.070033
     26 C12        -2.2900    1.7840   -4.4500 c3        1 MOL     -0.528936
     27 H8         -6.1490   -0.7570   -3.5850 hn        1 MOL      0.314916
     28 H9         -4.8720    1.0810   -3.8860 h1        1 MOL      0.035115
     29 H10        -3.3270    0.2650   -1.4980 hc        1 MOL     -0.135515
     30 H11        -1.4480    1.0720   -2.5840 hc        1 MOL      0.188418
     31 H12        -2.5800    2.2630   -2.3180 hc        1 MOL      0.188418
     32 H13        -3.9410   -1.7670   -3.1570 hc        1 MOL     -0.050157
     33 H14        -2.9720   -0.8650   -4.2580 hc        1 MOL     -0.050157
     34 H15        -2.2250   -1.4250   -2.6900 hc        1 MOL     -0.050157
     35 H16        -1.8900    0.8860   -4.9290 hc        1 MOL      0.131040
     36 H17        -3.2830    2.0360   -4.8270 hc        1 MOL      0.131040
     37 H18        -1.5970    2.6010   -4.6050 hc        1 MOL      0.131040
     38 N3         -6.0020    2.1890   -1.1370 n         1 MOL     -0.604007
     39 C13        -6.6940    3.3590   -0.5450 c3        1 MOL      0.460600
     40 C14        -5.8420    4.6360   -0.4660 c         1 MOL      0.380113
     41 O6         -6.4480    5.7070   -0.6830 o         1 MOL     -0.509742
     42 C15        -7.3340    3.0250    0.7490 c3        1 MOL     -0.520243
     43 C16        -8.2300    4.1180    1.2640 c         1 MOL      0.777730
     44 O7         -7.8030    5.0100    2.0000 o         1 MOL     -0.738755
     45 O8         -9.4630    4.0770    0.9570 o         1 MOL     -0.738755
     46 H19        -6.3460    1.2640   -0.8830 hn        1 MOL      0.435820
     47 H20        -7.5140    3.6480   -1.2030 h1        1 MOL     -0.028302
     48 H21        -6.5670    2.8790    1.5130 hc        1 MOL      0.108936
     49 H22        -7.9430    2.1420    0.5860 hc        1 MOL      0.108936
     50 N4         -4.5580    4.6500    0.0090 n         1 MOL     -0.323795
     51 C17        -3.7550    3.5740    0.6550 c3        1 MOL     -0.153693
     52 C18        -2.4750    4.1920    1.3710 c         1 MOL      0.811954
     53 O9         -2.0980    5.2980    1.1160 o         1 MOL     -0.577725
     54 H23        -4.1270    5.5690    0.0190 hn        1 MOL      0.238757
     55 H24        -3.4030    2.8660   -0.0820 h1        1 MOL      0.086175
     56 H25        -4.3510    3.0160    1.3780 h1        1 MOL      0.086175
     57 N5         -1.7190    3.4400    2.2370 n         1 MOL     -0.907246
     58 C19        -1.9990    2.0700    2.8310 c3        1 MOL      0.714324
     59 C20        -2.3360    0.9300    1.8000 c         1 MOL      0.260358
     60 O10        -3.4950    0.4220    1.7800 o         1 MOL     -0.563635
     61 C21        -2.8960    2.0330    4.0690 c3        1 MOL     -0.416944
     62 C22        -2.7850    0.7790    4.9090 c         1 MOL      0.803482
     63 O11        -1.7340    0.1470    4.9210 o         1 MOL     -0.712342
     64 O12        -3.7360    0.5380    5.6450 o         1 MOL     -0.712342
     65 H26        -0.9640    3.9420    2.6780 hn        1 MOL      0.355572
     66 H27        -1.0890    1.7320    3.3310 h1        1 MOL     -0.055644
     67 H28        -3.9510    2.1430    3.7920 hc        1 MOL      0.060292
     68 H29        -2.5180    2.8690    4.6390 hc        1 MOL      0.060292
     69 N6         -1.4340    0.4940    0.9050 n         1 MOL     -0.209227
     70 C23        -0.0050    0.9740    0.8710 c3        1 MOL     -0.115890
     71 C24         0.3690    2.2560    0.0780 c         1 MOL      0.548476
     72 O13        -0.4350    2.7250   -0.7380 o         1 MOL     -0.537588
     73 H30        -1.5780   -0.1840    0.1730 hn        1 MOL      0.120984
     74 H31         0.6170    0.1640    0.4770 h1        1 MOL      0.098593
     75 H32         0.3380    0.9140    1.9060 h1        1 MOL      0.098593
     76 N7          1.6310    2.7200    0.2060 n         1 MOL     -0.623121
     77 C25         2.0690    3.9690   -0.4130 c3        1 MOL      0.302740
     78 C26         2.6820    3.7810   -1.7430 c         1 MOL      0.312440
     79 O14         2.9450    4.7700   -2.3800 o         1 MOL     -0.522209
     80 C27         2.9790    4.7460    0.5850 c3        1 MOL      0.231611
     81 C28         3.2410    6.2520    0.3770 c3        1 MOL     -0.358227
     82 C29         4.4080    6.7790    1.1220 c         1 MOL      0.783893
     83 N8          4.7680    8.0330    1.0900 n         1 MOL     -0.834308
     84 O15         5.1200    6.1070    1.8210 o         1 MOL     -0.574398
     85 H33         2.1880    2.3150    0.9390 hn        1 MOL      0.294126
     86 H34         1.1980    4.6160   -0.5300 h1        1 MOL      0.054397
     87 H35         3.8920    4.1700    0.4190 hc        1 MOL     -0.050982
     88 H36         2.5890    4.5050    1.5710 hc        1 MOL     -0.050982
     89 H37         2.4290    6.8790    0.7360 hc        1 MOL      0.076496
     90 H38         3.3360    6.4880   -0.6820 hc        1 MOL      0.076496
     91 H39         4.0630    8.6590    0.7200 hn        1 MOL      0.348884
     92 H40         5.4700    8.4530    1.6690 hn        1 MOL      0.348884
     93 N9          2.9920    2.5590   -2.1630 n         1 MOL     -0.088953
     94 C30         3.4830    2.1440   -3.4990 c3        1 MOL     -0.041382
     95 C31         4.8370    1.4580   -3.6240 c         1 MOL      0.406636
     96 O16         5.4320    1.3980   -4.7620 o         1 MOL     -0.565000
     97 C32         2.4280    1.0960   -4.1520 c3        1 MOL      0.051494
     98 C33         1.2500    1.8150   -4.8230 c3        1 MOL     -0.129693
     99 C34         2.1050   -0.0240   -3.0770 c3        1 MOL     -0.129693
    100 H41         2.8090    1.7550   -1.5920 hn        1 MOL      0.188943
    101 H42         3.4840    3.0700   -4.0810 h1        1 MOL      0.102123
    102 H43         2.8650    0.5290   -4.9670 hc        1 MOL      0.037464
    103 H44         0.6820    1.0020   -5.2680 hc        1 MOL      0.034036
    104 H45         0.6820    2.4470   -4.1410 hc        1 MOL      0.034036
    105 H46         1.5870    2.5610   -5.5320 hc        1 MOL      0.034036
    106 H47         3.0390   -0.3530   -2.6110 hc        1 MOL      0.034036
    107 H48         1.3610    0.3280   -2.3660 hc        1 MOL      0.034036
    108 H49         1.7140   -0.9020   -3.5820 hc        1 MOL      0.034036
    109 N10         5.3630    1.1070   -2.5040 n         1 MOL     -0.408392
    110 C35         6.7920    0.7730   -2.2890 c3        1 MOL      0.570463
    111 C36         6.9600   -0.5340   -1.5780 c         1 MOL      0.308562
    112 O17         7.7950   -1.3440   -1.9790 o         1 MOL     -0.553818
    113 C37         7.5910    1.9430   -1.7470 c3        1 MOL     -0.565677
    114 C38         7.2280    2.3950   -0.4050 c         1 MOL      0.795852
    115 N11         8.0410    3.2740    0.1280 n         1 MOL     -0.803076
    116 O18         6.1700    2.0910    0.1200 o         1 MOL     -0.547248
    117 H50         4.8580    1.2950   -1.6530 hn        1 MOL      0.153334
    118 H51         7.2970    0.5890   -3.2460 h1        1 MOL      0.004202
    119 H52         7.2660    2.7900   -2.3630 hc        1 MOL      0.128146
    120 H53         8.6740    1.8500   -1.7750 hc        1 MOL      0.128146
    121 H54         8.8860    3.4130   -0.4080 hn        1 MOL      0.375441
    122 H55         7.9000    3.6990    1.0290 hn        1 MOL      0.375441
    123 N12         6.0690   -0.8960   -0.6470 n         1 MOL     -0.366271
    124 C39         6.2050   -2.1020    0.1440 c3        1 MOL      0.362085
    125 C40         4.8090   -2.8520    0.1870 c         1 MOL      0.277024
    126 O19         3.8300   -2.2930   -0.2370 o         1 MOL     -0.462504
    127 C41         6.6330   -1.6820    1.5950 c3        1 MOL     -0.307082
    128 C42         7.9430   -0.9700    1.9890 ca        1 MOL      0.024012
    129 C43         9.2200   -1.5240    1.7700 ca        1 MOL     -0.048272
    130 C44         7.9550    0.3900    2.3590 ca        1 MOL     -0.048272
    131 C45        10.4520   -0.8880    1.9100 ca        1 MOL     -0.385288
    132 C46         9.2010    1.1290    2.5290 ca        1 MOL     -0.385288
    133 C47        10.3880    0.4760    2.2450 ca        1 MOL      0.408116
    134 O20        11.4910    1.2700    2.2150 oh        1 MOL     -0.512095
    135 H56         5.4020   -0.2320   -0.2960 hn        1 MOL      0.260830
    136 H57         6.8750   -2.8550   -0.2560 h1        1 MOL      0.014907
    137 H58         6.6650   -2.6490    2.1130 hc        1 MOL      0.101966
    138 H59         5.7300   -1.1740    1.9360 hc        1 MOL      0.101966
    139 H60         9.1900   -2.4920    1.2950 ha        1 MOL      0.086305
    140 H61         6.9920    0.8170    2.5670 ha        1 MOL      0.086305
    141 H62        11.3260   -1.3700    1.5150 ha        1 MOL      0.168952
    142 H63         9.1570    2.1850    2.7390 ha        1 MOL      0.168952
    143 H64        12.2310    0.7160    1.9390 ho        1 MOL      0.348404
    144 N13         4.8370   -3.9860    0.9020 n         1 MOL     -0.444591
    145 C48         3.6620   -4.7270    1.4690 c3        1 MOL      0.036901
    146 C49         2.6890   -5.2730    0.4340 c         1 MOL      0.168081
    147 O21         2.2910   -6.4650    0.4470 o         1 MOL     -0.464417
    148 C50         2.8980   -3.9270    2.5830 c3        1 MOL     -0.030444
    149 C51         1.9850   -4.6760    3.4780 c3        1 MOL     -0.450574
    150 C52         1.6140   -3.9030    4.7460 c         1 MOL      0.751410
    151 O22         2.2270   -4.0060    5.8250 o         1 MOL     -0.697920
    152 O23         0.7080   -3.0470    4.6970 o         1 MOL     -0.697920
    153 H65         5.7000   -4.4890    0.9980 hn        1 MOL      0.299031
    154 H66         4.0320   -5.5930    2.0170 h1        1 MOL      0.082599
    155 H67         2.3230   -3.1640    2.0480 hc        1 MOL      0.079836
    156 H68         3.6390   -3.3690    3.1470 hc        1 MOL      0.079836
    157 H69         2.5910   -5.5290    3.7850 hc        1 MOL      0.106925
    158 H70         1.0500   -4.9780    3.0100 hc        1 MOL      0.106925
    159 N14         2.0990   -4.4120   -0.4150 n         1 MOL     -0.079043
    160 C53         0.9790   -4.6430   -1.3730 c3        1 MOL     -0.095426
    161 C54         1.4840   -5.6110   -2.5280 c         1 MOL      0.432622
    162 O24         0.8180   -6.6530   -2.7720 o         1 MOL     -0.532701
    163 C55         0.3920   -3.3220   -1.8820 c3        1 MOL     -0.038162
    164 C56        -0.0730   -2.3600   -0.7570 c3        1 MOL      0.355452
    165 C57        -1.3370   -2.8190   -0.0400 c         1 MOL      0.696750
    166 O25        -1.3420   -3.8820    0.6220 o         1 MOL     -0.639121
    167 O26        -2.3140   -2.0590   -0.0110 o         1 MOL     -0.639121
    168 H71         2.5350   -3.5000   -0.4990 hn        1 MOL      0.323631
    169 H72         0.1900   -5.2330   -0.8980 h1        1 MOL      0.130722
    170 H73        -0.3540   -3.6540   -2.6050 hc        1 MOL     -0.029409
    171 H74         1.2400   -2.8720   -2.3780 hc        1 MOL     -0.029409
    172 H75        -0.2320   -1.4070   -1.2630 hc        1 MOL     -0.164986
    173 H76         0.7860   -2.2960   -0.0890 hc        1 MOL     -0.164986
    174 N15         2.7060   -5.4260   -2.9790 n         1 MOL     -0.155061
    175 C58         3.4220   -6.3060   -3.9340 c3        1 MOL     -0.390460
    176 H77         4.3480   -5.8240   -4.2490 h1        1 MOL      0.139371
    177 H78         3.6540   -7.2550   -3.4510 h1        1 MOL      0.139371
    178 H79         2.7920   -6.4860   -4.8050 h1        1 MOL      0.139371
    179 H80         3.1250   -4.6000   -2.5670 hn        1 MOL      0.194334
    180 Ca1        -4.6060   -1.9070    1.3230 Ca        1 MOL      1.807891
    181 O27        -3.9400   -4.4420    1.3760 oh        1 MOL     -0.917453
    182 H81        -4.6400   -5.0980    1.3980 ho        1 MOL      0.435556
    183 H82        -3.1340   -4.9510    1.3350 ho        1 MOL      0.435556
    184 O28        -6.5290   -0.2680    2.5780 oh        1 MOL     -0.917453
    185 H83        -7.3950   -0.0170    2.2870 ho        1 MOL      0.435556
    186 H84        -6.4460    0.1180    3.4520 ho        1 MOL      0.435556
    187 O29        -3.9420   -2.0670    3.8880 oh        1 MOL     -0.917453
    188 H85        -4.0900   -1.4610    4.6090 ho        1 MOL      0.435556
    189 H86        -3.1820   -2.5790    4.1470 ho        1 MOL      0.435556
@<TRIPOS>BOND
     1    1    2 1   
     2    1    4 1   
     3    1    5 1   
     4    1    6 1   
     5    2    3 2   
     6    2    7 1   
     7    7    8 1   
     8    7   15 1   
     9    8    9 1   
    10    8   11 1   
    11    8   16 1   
    12    9   10 2   
    13    9   19 1   
    14   11   12 1   
    15   11   17 1   
    16   11   18 1   
    17   12   13 1   
    18   12   14 1   
    19   19   20 1   
    20   19   27 1   
    21   20   21 1   
    22   20   23 1   
    23   20   28 1   
    24   21   22 2   
    25   21   38 1   
    26   23   24 1   
    27   23   25 1   
    28   23   29 1   
    29   24   26 1   
    30   24   30 1   
    31   24   31 1   
    32   25   32 1   
    33   25   33 1   
    34   25   34 1   
    35   26   35 1   
    36   26   36 1   
    37   26   37 1   
    38   38   39 1   
    39   38   46 1   
    40   39   40 1   
    41   39   42 1   
    42   39   47 1   
    43   40   41 2   
    44   40   50 1   
    45   42   43 1   
    46   42   48 1   
    47   42   49 1   
    48   43   44 1   
    49   43   45 1   
    50   50   51 1   
    51   50   54 1   
    52   51   52 1   
    53   51   55 1   
    54   51   56 1   
    55   52   53 2   
    56   52   57 1   
    57   57   58 1   
    58   57   65 1   
    59   58   59 1   
    60   58   61 1   
    61   58   66 1   
    62   59   60 2   
    63   59   69 1   
    64   61   62 1   
    65   61   67 1   
    66   61   68 1   
    67   62   63 1   
    68   62   64 1   
    69   69   70 1   
    70   69   73 1   
    71   70   71 1   
    72   70   74 1   
    73   70   75 1   
    74   71   72 2   
    75   71   76 1   
    76   76   77 1   
    77   76   85 1   
    78   77   78 1   
    79   77   80 1   
    80   77   86 1   
    81   78   79 2   
    82   78   93 1   
    83   80   81 1   
    84   80   87 1   
    85   80   88 1   
    86   81   82 1   
    87   81   89 1   
    88   81   90 1   
    89   82   83 1   
    90   82   84 2   
    91   83   91 1   
    92   83   92 1   
    93   93   94 1   
    94   93  100 1   
    95   94   95 1   
    96   94   97 1   
    97   94  101 1   
    98   95   96 2   
    99   95  109 1   
   100   97   98 1   
   101   97   99 1   
   102   97  102 1   
   103   98  103 1   
   104   98  104 1   
   105   98  105 1   
   106   99  106 1   
   107   99  107 1   
   108   99  108 1   
   109  109  110 1   
   110  109  117 1   
   111  110  111 1   
   112  110  113 1   
   113  110  118 1   
   114  111  112 2   
   115  111  123 1   
   116  113  114 1   
   117  113  119 1   
   118  113  120 1   
   119  114  115 1   
   120  114  116 2   
   121  115  121 1   
   122  115  122 1   
   123  123  124 1   
   124  123  135 1   
   125  124  125 1   
   126  124  127 1   
   127  124  136 1   
   128  125  126 2   
   129  125  144 1   
   130  127  128 1   
   131  127  137 1   
   132  127  138 1   
   133  128  129 ar  
   134  128  130 ar  
   135  129  131 ar  
   136  129  139 1   
   137  130  132 ar  
   138  130  140 1   
   139  131  133 ar  
   140  131  141 1   
   141  132  133 ar  
   142  132  142 1   
   143  133  134 1   
   144  134  143 1   
   145  144  145 1   
   146  144  153 1   
   147  145  146 1   
   148  145  148 1   
   149  145  154 1   
   150  146  147 2   
   151  146  159 1   
   152  148  149 1   
   153  148  155 1   
   154  148  156 1   
   155  149  150 1   
   156  149  157 1   
   157  149  158 1   
   158  150  151 1   
   159  150  152 1   
   160  159  160 1   
   161  159  168 1   
   162  160  161 1   
   163  160  163 1   
   164  160  169 1   
   165  161  162 2   
   166  161  174 1   
   167  163  164 1   
   168  163  170 1   
   169  163  171 1   
   170  164  165 1   
   171  164  172 1   
   172  164  173 1   
   173  165  166 1   
   174  165  167 1   
   175  174  175 1   
   176  174  179 1   
   177  175  176 1   
   178  175  177 1   
   179  175  178 1   
   180  181  182 1   
   181  181  183 1   
   182  184  185 1   
   183  184  186 1   
   184  187  188 1   
   185  187  189 1   
@<TRIPOS>SUBSTRUCTURE
     1 MOL         1 TEMP              0 ****  ****    0 ROOT
