@<TRIPOS>MOLECULE
MOL
  178   175     1     0     0
SMALL
resp


@<TRIPOS>ATOM
      1 C1         -4.5030   -0.8330   -4.1590 c3        1 MOL     -0.380857
      2 C2         -5.8910   -0.1440   -4.0120 c         1 MOL      0.649461
      3 O1         -6.0220    1.0370   -4.3300 o         1 MOL     -0.550680
      4 H1         -4.6040   -1.7230   -4.7800 hc        1 MOL      0.106884
      5 H2         -3.8020   -0.1430   -4.6280 hc        1 MOL      0.106884
      6 H3         -4.1300   -1.1180   -3.1750 hc        1 MOL      0.106884
      7 N1         -6.9280   -0.9240   -3.5020 n         1 MOL     -0.625774
      8 C3         -8.1750   -0.4030   -2.8330 c3        1 MOL      0.249784
      9 C4         -8.1780   -0.8470   -1.3610 c         1 MOL      0.612882
     10 O2         -8.0860   -2.0470   -1.1010 o         1 MOL     -0.582269
     11 C5         -9.3840   -0.7960   -3.6370 c3        1 MOL     -0.217291
     12 C6        -10.6490   -0.4790   -2.8650 c         1 MOL      0.723413
     13 O3        -11.4180   -1.3930   -2.5440 o         1 MOL     -0.738100
     14 O4        -10.8830    0.7070   -2.5740 o         1 MOL     -0.738100
     15 H4         -6.7410   -1.8890   -3.2640 hn        1 MOL      0.312996
     16 H5         -8.3020    0.6750   -2.8090 h1        1 MOL     -0.006603
     17 H6         -9.3360   -1.8350   -3.9540 hc        1 MOL      0.024496
     18 H7         -9.3860   -0.1590   -4.5200 hc        1 MOL      0.024496
     19 N2         -8.1940    0.1030   -0.4240 n         1 MOL     -0.590063
     20 C7         -8.0480   -0.1450    1.0610 c3        1 MOL      0.441812
     21 C8         -6.5370   -0.4640    1.4800 c         1 MOL      0.457132
     22 O5         -5.6550    0.4200    1.5840 o         1 MOL     -0.535891
     23 C9         -8.6460    0.9890    1.8750 c3        1 MOL     -0.369036
     24 H8         -8.3510    1.0360   -0.7720 hn        1 MOL      0.302431
     25 H9         -8.6730   -0.9620    1.4250 h1        1 MOL      0.010133
     26 H10        -8.2970    1.9360    1.4740 hc        1 MOL      0.086483
     27 H11        -9.7240    0.8200    1.8490 hc        1 MOL      0.086483
     28 H12        -8.3100    0.9300    2.9080 hc        1 MOL      0.086483
     29 N3         -6.2470   -1.7370    1.8680 n         1 MOL     -0.654339
     30 C10        -4.8910   -2.2330    1.7830 c3        1 MOL      0.355238
     31 C11        -4.0420   -1.9410    3.0640 c         1 MOL      0.441836
     32 O6         -2.8350   -2.2960    3.0330 o         1 MOL     -0.569494
     33 C12        -4.8840   -3.6710    1.2970 c3        1 MOL     -0.264280
     34 C13        -3.4630   -4.1090    0.8700 c         1 MOL      0.769653
     35 O7         -3.0590   -5.2680    1.2160 o         1 MOL     -0.733731
     36 O8         -2.7310   -3.3680    0.1860 o         1 MOL     -0.733731
     37 H13        -7.0340   -2.3490    2.0470 hn        1 MOL      0.286834
     38 H14        -4.5350   -1.6050    0.9580 h1        1 MOL      0.109878
     39 H15        -5.5750   -3.7480    0.4490 hc        1 MOL      0.044599
     40 H16        -5.2450   -4.2600    2.1380 hc        1 MOL      0.044599
     41 N4         -4.6530   -1.3580    4.0990 n         1 MOL     -0.296955
     42 C14        -4.0920   -1.1300    5.4430 c3        1 MOL     -0.218140
     43 C15        -3.0600   -0.0160    5.5760 c         1 MOL      0.532777
     44 O9         -2.4470    0.2770    6.6120 o         1 MOL     -0.584318
     45 H17        -5.6100   -1.0730    3.9350 hn        1 MOL      0.263973
     46 H18        -3.6140   -2.0730    5.7330 h1        1 MOL      0.108487
     47 H19        -4.8250   -0.8760    6.2080 h1        1 MOL      0.108487
     48 N5         -2.7150    0.4810    4.4220 n         1 MOL     -0.270527
     49 C16        -1.7550    1.6300    4.1830 c3        1 MOL      0.134055
     50 C17        -2.2150    2.5320    3.0540 c         1 MOL      0.356051
     51 O10        -2.7180    2.0540    2.0480 o         1 MOL     -0.426132
     52 C18        -0.3920    1.0500    3.9370 c3        1 MOL     -0.258861
     53 C19         0.6590    2.1290    4.1010 c         1 MOL      0.640874
     54 N6          1.7130    2.0010    3.3410 n         1 MOL     -0.801048
     55 O11         0.5230    3.1800    4.8220 o         1 MOL     -0.577185
     56 H20        -3.1400    0.0990    3.5830 hn        1 MOL      0.211160
     57 H21        -1.7620    2.3310    5.0170 h1        1 MOL      0.022590
     58 H22        -0.3390    0.7560    2.8870 hc        1 MOL      0.136762
     59 H23        -0.2000    0.1290    4.4850 hc        1 MOL      0.136762
     60 H24         1.6990    1.2370    2.6970 hn        1 MOL      0.368982
     61 H25         2.3850    2.7610    3.3020 hn        1 MOL      0.368982
     62 N7         -1.9090    3.8340    3.1440 n         1 MOL     -0.430253
     63 C20        -2.0620    4.8000    2.0460 c3        1 MOL      0.202463
     64 C21        -0.7610    5.3600    1.4730 c         1 MOL      0.487126
     65 O12         0.3040    4.7480    1.6920 o         1 MOL     -0.452243
     66 H26        -1.4560    4.0970    3.9990 hn        1 MOL      0.286211
     67 H27        -2.6120    5.6560    2.4270 h1        1 MOL      0.020034
     68 H28        -2.7390    4.4550    1.2650 h1        1 MOL      0.020034
     69 N8         -0.8260    6.4170    0.6070 n         1 MOL     -0.454727
     70 C22         0.1910    6.9750   -0.3080 c3        1 MOL     -0.262580
     71 C23         0.9520    6.0470   -1.2690 c         1 MOL      0.542725
     72 O13         1.8420    6.3740   -2.0210 o         1 MOL     -0.604981
     73 C24        -0.3280    8.1760   -1.0740 c3        1 MOL      0.499870
     74 C25        -1.2660    7.8710   -2.2530 c3        1 MOL     -0.422213
     75 O14        -0.9690    9.1360   -0.2690 oh        1 MOL     -0.632274
     76 H29        -1.7610    6.7270    0.3910 hn        1 MOL      0.254762
     77 H30         0.9510    7.4570    0.3150 h1        1 MOL      0.148194
     78 H31         0.5340    8.6760   -1.5390 h1        1 MOL      0.023411
     79 H32        -1.8540    8.8000   -0.0990 ho        1 MOL      0.380206
     80 H33        -2.1130    7.2880   -1.9130 hc        1 MOL      0.104793
     81 H34        -1.5900    8.8680   -2.5400 hc        1 MOL      0.104793
     82 H35        -0.7750    7.2570   -3.0090 hc        1 MOL      0.104793
     83 N9          0.5560    4.8340   -1.2550 n         1 MOL     -0.187969
     84 C26         0.9750    3.6390   -2.0450 c3        1 MOL     -0.081671
     85 C27         0.6320    2.4290   -1.1320 c         1 MOL      0.380282
     86 O15        -0.5150    2.2490   -0.5720 o         1 MOL     -0.435631
     87 C28         0.2190    3.5180   -3.4350 c3        1 MOL      0.078970
     88 C29         0.4980    4.6390   -4.3980 c3        1 MOL      0.218456
     89 C30         0.7870    2.2870   -4.1640 c3        1 MOL      0.056556
     90 C31        -0.1200    4.5090   -5.8270 c3        1 MOL     -0.283022
     91 H36         0.0310    4.6370   -0.4220 hn        1 MOL      0.115757
     92 H37         2.0430    3.7280   -2.2140 h1        1 MOL      0.096289
     93 H38        -0.8600    3.4850   -3.2750 hc        1 MOL      0.031527
     94 H39         1.5800    4.7680   -4.4570 hc        1 MOL     -0.037183
     95 H40         0.0630    5.5840   -4.0920 hc        1 MOL     -0.037183
     96 H41         0.7470    1.4150   -3.5060 hc        1 MOL     -0.029013
     97 H42         0.2660    2.0710   -5.0960 hc        1 MOL     -0.029013
     98 H43         1.8410    2.3850   -4.3750 hc        1 MOL     -0.029013
     99 H44         0.3410    3.6470   -6.3130 hc        1 MOL      0.060822
    100 H45        -1.2040    4.4230   -5.8140 hc        1 MOL      0.060822
    101 H46         0.1490    5.4310   -6.3390 hc        1 MOL      0.060822
    102 N10         1.6820    1.5750   -1.0950 n         1 MOL     -0.429981
    103 C32         1.7270    0.3000   -0.3430 c3        1 MOL      0.575958
    104 C33         3.1420   -0.0170    0.2850 c         1 MOL      0.282387
    105 O16         3.5700   -1.1970    0.3140 o         1 MOL     -0.482680
    106 C34         1.3040   -0.8600   -1.2410 c3        1 MOL     -0.189169
    107 C35         0.7730   -2.1120   -0.6190 c         1 MOL      0.789349
    108 O17         0.4910   -3.0470   -1.3930 o         1 MOL     -0.757300
    109 O18         0.4710   -2.1460    0.5430 o         1 MOL     -0.757300
    110 H47         2.4160    1.7700   -1.7630 hn        1 MOL      0.260805
    111 H48         1.0450    0.2920    0.5200 h1        1 MOL     -0.094228
    112 H49         2.1620   -0.9890   -1.9080 hc        1 MOL      0.022525
    113 H50         0.4890   -0.5300   -1.8860 hc        1 MOL      0.022525
    114 N11         3.8920    0.9890    0.6710 n         1 MOL     -0.301860
    115 C36         5.3650    0.8860    0.9730 c3        1 MOL      0.048760
    116 C37         6.1670    0.0860   -0.0680 c         1 MOL      0.517678
    117 O19         5.9820    0.2660   -1.2340 o         1 MOL     -0.568269
    118 C38         5.9580    2.2660    1.0750 c3        1 MOL     -0.053755
    119 C39         7.4600    2.3700    1.2550 ca        1 MOL     -0.022311
    120 C40         8.0250    2.2600    2.5540 ca        1 MOL     -0.137917
    121 C41         8.3230    2.2990    0.1370 ca        1 MOL     -0.137917
    122 C42         9.4270    1.9840    2.7650 ca        1 MOL     -0.104894
    123 C43         9.7130    2.1040    0.3740 ca        1 MOL     -0.104894
    124 C44        10.2240    1.9280    1.6450 ca        1 MOL     -0.110641
    125 H51         3.5370    1.8920    0.3910 hn        1 MOL      0.167693
    126 H52         5.4550    0.3660    1.9230 h1        1 MOL      0.037451
    127 H53         5.5480    2.8130    1.9230 hc        1 MOL      0.060051
    128 H54         5.6030    2.8020    0.1930 hc        1 MOL      0.060051
    129 H55         7.3840    2.3060    3.4140 ha        1 MOL      0.131605
    130 H56         8.0210    2.3720   -0.8960 ha        1 MOL      0.131605
    131 H57         9.8440    1.8910    3.7620 ha        1 MOL      0.110311
    132 H58        10.3760    2.1150   -0.4680 ha        1 MOL      0.110311
    133 H59        11.2890    1.7740    1.6750 ha        1 MOL      0.107841
    134 N12         6.9670   -0.9110    0.3330 n         1 MOL     -0.128232
    135 C45         7.8200   -1.5810   -0.6840 c3        1 MOL      0.054919
    136 C46         7.1830   -2.6560   -1.5850 c         1 MOL      0.271255
    137 O20         7.8440   -3.0500   -2.5700 o         1 MOL     -0.483170
    138 C47         9.0940   -2.0300    0.1060 c3        1 MOL     -0.008287
    139 C48         8.8350   -1.4960    1.5160 c3        1 MOL      0.081380
    140 C49         7.4110   -1.1010    1.7000 c3        1 MOL     -0.144347
    141 H60         8.1560   -0.8640   -1.4370 h1        1 MOL      0.086669
    142 H61         9.3470   -3.0780   -0.0290 hc        1 MOL      0.019466
    143 H62         9.9770   -1.5210   -0.2840 hc        1 MOL      0.019466
    144 H63         9.0620   -2.2950    2.2240 hc        1 MOL     -0.019106
    145 H64         9.4910   -0.6330    1.6440 hc        1 MOL     -0.019106
    146 H65         6.8850   -1.9550    2.1290 h1        1 MOL      0.070304
    147 H66         7.4040   -0.2620    2.3980 h1        1 MOL      0.070304
    148 N13         5.9270   -3.0910   -1.3150 n         1 MOL     -0.193671
    149 C50         5.1210   -3.9500   -2.2860 c3        1 MOL     -0.092963
    150 C51         5.0740   -3.2800   -3.6500 c         1 MOL      0.594527
    151 O21         5.7060   -3.7280   -4.5760 o         1 MOL     -0.539644
    152 C52         3.7150   -4.2460   -1.6400 c3        1 MOL      0.096398
    153 C53         3.6740   -5.5140   -0.7760 c3        1 MOL     -0.269460
    154 C54         2.2710   -5.7570   -0.2500 c         1 MOL      0.694460
    155 O22         1.3910   -6.2600   -0.9560 o         1 MOL     -0.723807
    156 O23         1.9850   -5.3210    0.8760 o         1 MOL     -0.723807
    157 H67         5.4770   -2.7100   -0.4940 hn        1 MOL      0.228365
    158 H68         5.5750   -4.9250   -2.4470 h1        1 MOL      0.065251
    159 H69         3.0370   -4.4640   -2.4630 hc        1 MOL      0.022922
    160 H70         3.4270   -3.4360   -0.9750 hc        1 MOL      0.022922
    161 H71         4.4250   -5.5290    0.0160 hc        1 MOL      0.048409
    162 H72         3.8180   -6.3890   -1.4150 hc        1 MOL      0.048409
    163 N14         4.3270   -2.1840   -3.8310 n         1 MOL     -0.330555
    164 C55         3.7600   -1.7800   -5.1620 c3        1 MOL     -0.322054
    165 H73         3.2390   -0.8280   -5.0600 h1        1 MOL      0.131501
    166 H74         4.5680   -1.6760   -5.8850 h1        1 MOL      0.131501
    167 H75         3.0590   -2.5410   -5.5050 h1        1 MOL      0.131501
    168 H76         4.0050   -1.7180   -2.9970 hn        1 MOL      0.254326
    169 Ca1        -0.4290   -4.6790    0.5180 Ca        1 MOL      1.662346
    170 O24        -1.3040   -5.8620   -1.6900 oh        1 MOL     -0.797163
    171 H77        -0.7680   -5.5300   -2.4020 ho        1 MOL      0.393374
    172 H78        -1.8690   -6.5160   -2.0860 ho        1 MOL      0.393374
    173 O25        -0.3030   -7.0660    1.6900 oh        1 MOL     -0.797163
    174 H79        -0.7390   -7.9160    1.7340 ho        1 MOL      0.393374
    175 H80        -0.0940   -6.8550    2.5960 ho        1 MOL      0.393374
    176 O26        -0.9090   -4.0430    3.1090 oh        1 MOL     -0.797163
    177 H81        -1.7510   -3.5910    3.0830 ho        1 MOL      0.393374
    178 H82        -0.4860   -3.7210    3.9090 ho        1 MOL      0.393374
@<TRIPOS>BOND
     1    1    2 1   
     2    1    4 1   
     3    1    5 1   
     4    1    6 1   
     5    2    3 2   
     6    2    7 1   
     7    7    8 1   
     8    7   15 1   
     9    8    9 1   
    10    8   11 1   
    11    8   16 1   
    12    9   10 2   
    13    9   19 1   
    14   11   12 1   
    15   11   17 1   
    16   11   18 1   
    17   12   13 1   
    18   12   14 1   
    19   19   20 1   
    20   19   24 1   
    21   20   21 1   
    22   20   23 1   
    23   20   25 1   
    24   21   22 2   
    25   21   29 1   
    26   23   26 1   
    27   23   27 1   
    28   23   28 1   
    29   29   30 1   
    30   29   37 1   
    31   30   31 1   
    32   30   33 1   
    33   30   38 1   
    34   31   32 2   
    35   31   41 1   
    36   33   34 1   
    37   33   39 1   
    38   33   40 1   
    39   34   35 1   
    40   34   36 1   
    41   41   42 1   
    42   41   45 1   
    43   42   43 1   
    44   42   46 1   
    45   42   47 1   
    46   43   44 2   
    47   43   48 1   
    48   48   49 1   
    49   48   56 1   
    50   49   50 1   
    51   49   52 1   
    52   49   57 1   
    53   50   51 2   
    54   50   62 1   
    55   52   53 1   
    56   52   58 1   
    57   52   59 1   
    58   53   54 1   
    59   53   55 2   
    60   54   60 1   
    61   54   61 1   
    62   62   63 1   
    63   62   66 1   
    64   63   64 1   
    65   63   67 1   
    66   63   68 1   
    67   64   65 2   
    68   64   69 1   
    69   69   70 1   
    70   69   76 1   
    71   70   71 1   
    72   70   73 1   
    73   70   77 1   
    74   71   72 2   
    75   71   83 1   
    76   73   74 1   
    77   73   75 1   
    78   73   78 1   
    79   74   80 1   
    80   74   81 1   
    81   74   82 1   
    82   75   79 1   
    83   83   84 1   
    84   83   91 1   
    85   84   85 1   
    86   84   87 1   
    87   84   92 1   
    88   85   86 2   
    89   85  102 1   
    90   87   88 1   
    91   87   89 1   
    92   87   93 1   
    93   88   90 1   
    94   88   94 1   
    95   88   95 1   
    96   89   96 1   
    97   89   97 1   
    98   89   98 1   
    99   90   99 1   
   100   90  100 1   
   101   90  101 1   
   102  102  103 1   
   103  102  110 1   
   104  103  104 1   
   105  103  106 1   
   106  103  111 1   
   107  104  105 2   
   108  104  114 1   
   109  106  107 1   
   110  106  112 1   
   111  106  113 1   
   112  107  108 1   
   113  107  109 1   
   114  114  115 1   
   115  114  125 1   
   116  115  116 1   
   117  115  118 1   
   118  115  126 1   
   119  116  117 2   
   120  116  134 1   
   121  118  119 1   
   122  118  127 1   
   123  118  128 1   
   124  119  120 ar  
   125  119  121 ar  
   126  120  122 ar  
   127  120  129 1   
   128  121  123 ar  
   129  121  130 1   
   130  122  124 ar  
   131  122  131 1   
   132  123  124 ar  
   133  123  132 1   
   134  124  133 1   
   135  134  135 1   
   136  134  140 1   
   137  135  136 1   
   138  135  138 1   
   139  135  141 1   
   140  136  137 2   
   141  136  148 1   
   142  138  139 1   
   143  138  142 1   
   144  138  143 1   
   145  139  140 1   
   146  139  144 1   
   147  139  145 1   
   148  140  146 1   
   149  140  147 1   
   150  148  149 1   
   151  148  157 1   
   152  149  150 1   
   153  149  152 1   
   154  149  158 1   
   155  150  151 2   
   156  150  163 1   
   157  152  153 1   
   158  152  159 1   
   159  152  160 1   
   160  153  154 1   
   161  153  161 1   
   162  153  162 1   
   163  154  155 1   
   164  154  156 1   
   165  163  164 1   
   166  163  168 1   
   167  164  165 1   
   168  164  166 1   
   169  164  167 1   
   170  170  171 1   
   171  170  172 1   
   172  173  174 1   
   173  173  175 1   
   174  176  177 1   
   175  176  178 1   
@<TRIPOS>SUBSTRUCTURE
     1 MOL         1 TEMP              0 ****  ****    0 ROOT
