@<TRIPOS>MOLECULE
MOL
  188   182     1     0     0
SMALL
resp


@<TRIPOS>ATOM
      1 C1          1.0370    1.4590    2.8100 c3        1 MOL     -0.243815
      2 C2          2.2910    1.1090    1.8990 c         1 MOL      0.715472
      3 O1          2.7550    1.8890    1.0100 o         1 MOL     -0.626103
      4 H1          0.2320    1.8440    2.1850 hc        1 MOL      0.060784
      5 H2          0.7000    0.5600    3.3250 hc        1 MOL      0.060784
      6 H3          1.3200    2.2140    3.5430 hc        1 MOL      0.060784
      7 N1          2.8860   -0.0430    2.1570 n         1 MOL     -0.588452
      8 C3          4.1820   -0.3320    1.5040 c3        1 MOL     -0.068264
      9 C4          4.5220   -1.8600    1.3160 c         1 MOL      0.360431
     10 O2          5.5890   -2.2900    0.7560 o         1 MOL     -0.416484
     11 C5          5.2690    0.4360    2.3470 c3        1 MOL      0.012153
     12 C6          5.4830   -0.1480    3.7710 c         1 MOL      0.629562
     13 O3          4.4820   -0.6750    4.2930 o         1 MOL     -0.670191
     14 O4          6.5640    0.1570    4.2580 o         1 MOL     -0.670191
     15 H4          2.5920   -0.5440    2.9790 hn        1 MOL      0.308257
     16 H5          4.2270    0.0760    0.4840 h1        1 MOL      0.156714
     17 H6          5.0710    1.4810    2.5860 hc        1 MOL      0.037074
     18 H7          6.2170    0.3430    1.8200 hc        1 MOL      0.037074
     19 N2          3.6220   -2.7260    1.7680 n         1 MOL     -0.215333
     20 C7          3.6750   -4.2080    1.7770 c3        1 MOL      0.075199
     21 C8          4.0480   -4.7570    0.3870 c         1 MOL      0.437727
     22 O5          4.6900   -5.7690    0.2540 o         1 MOL     -0.523372
     23 C9          4.5670   -4.7750    2.8670 c3        1 MOL     -0.032057
     24 C10         4.6310   -4.0730    4.1900 c3        1 MOL      0.046653
     25 C11         3.2450   -3.9940    4.9250 c3        1 MOL     -0.534746
     26 C12         3.4290   -3.1550    6.1880 c3        1 MOL      0.177920
     27 N3          3.7190   -4.0340    7.4070 n4        1 MOL     -0.347804
     28 H8          2.6900   -2.3690    1.9350 hn        1 MOL      0.201473
     29 H9          2.6520   -4.5510    1.9520 h1        1 MOL      0.066618
     30 H10         5.6100   -4.8510    2.5560 hc        1 MOL      0.023020
     31 H11         4.2310   -5.8040    2.9930 hc        1 MOL      0.023020
     32 H12         5.1010   -3.0890    4.1520 hc        1 MOL      0.045190
     33 H13         5.2770   -4.6980    4.8070 hc        1 MOL      0.045190
     34 H14         2.7650   -4.9500    5.1430 hc        1 MOL      0.158483
     35 H15         2.4510   -3.5680    4.3010 hc        1 MOL      0.158483
     36 H16         2.5250   -2.5770    6.3530 hx        1 MOL      0.069522
     37 H17         4.2580   -2.4580    6.0090 hx        1 MOL      0.069522
     38 H18         3.0740   -4.7980    7.5600 hn        1 MOL      0.308813
     39 H19         4.5760   -4.5390    7.2180 hn        1 MOL      0.308813
     40 H20         3.8660   -3.4630    8.2310 hn        1 MOL      0.308813
     41 N4          3.5420   -3.9920   -0.6050 n         1 MOL     -0.231392
     42 C13         3.6810   -4.2880   -2.0410 c3        1 MOL     -0.010846
     43 C14         4.7410   -3.4180   -2.7480 c         1 MOL      0.490755
     44 O6          5.0150   -3.5800   -3.9260 o         1 MOL     -0.545716
     45 C15         2.3630   -4.1510   -2.7840 c3        1 MOL     -0.180484
     46 C16         1.0510   -4.6530   -2.1320 c         1 MOL      0.764481
     47 O7          0.7530   -4.3680   -0.9680 o         1 MOL     -0.780774
     48 O8          0.2110   -5.2210   -2.9000 o         1 MOL     -0.780774
     49 H21         2.9940   -3.1960   -0.3350 hn        1 MOL      0.217628
     50 H22         3.9900   -5.3320   -2.1040 h1        1 MOL      0.085997
     51 H23         2.4450   -4.7070   -3.7160 hc        1 MOL      0.056643
     52 H24         2.2300   -3.1020   -3.0380 hc        1 MOL      0.056643
     53 N5          5.2070   -2.3920   -2.0120 n         1 MOL     -0.281089
     54 C17         5.8320   -1.2260   -2.6050 c3        1 MOL      0.088646
     55 C18         7.1800   -0.8310   -1.9590 c         1 MOL      0.475834
     56 O9          7.8680   -1.7390   -1.4830 o         1 MOL     -0.527344
     57 H25         5.0140   -2.4210   -1.0220 hn        1 MOL      0.135350
     58 H26         5.1570   -0.3780   -2.4790 h1        1 MOL      0.028057
     59 H27         5.9100   -1.3150   -3.6900 h1        1 MOL      0.028057
     60 N6          7.6210    0.4160   -1.8240 n         1 MOL     -0.438865
     61 C19         6.8520    1.6480   -2.0460 c3        1 MOL      0.430010
     62 C20         6.7540    2.4270   -0.6560 c         1 MOL      0.290825
     63 O10         7.6410    2.3360    0.2090 o         1 MOL     -0.496801
     64 C21         7.3650    2.5650   -3.1780 c3        1 MOL     -0.392492
     65 C22         7.2950    1.8990   -4.5620 c         1 MOL      0.664272
     66 N7          7.5160    2.6810   -5.5960 n         1 MOL     -0.782749
     67 O11         7.1770    0.7030   -4.6970 o         1 MOL     -0.525963
     68 H28         8.5710    0.4610   -1.4870 hn        1 MOL      0.279128
     69 H29         5.8250    1.3450   -2.2490 h1        1 MOL      0.000828
     70 H30         8.3750    2.9000   -2.9960 hc        1 MOL      0.101377
     71 H31         6.6710    3.4060   -3.1640 hc        1 MOL      0.101377
     72 H32         7.8260    3.6330   -5.4430 hn        1 MOL      0.362315
     73 H33         7.4130    2.2560   -6.5060 hn        1 MOL      0.362315
     74 N8          5.6990    3.1980   -0.3870 n         1 MOL     -0.260402
     75 C23         4.4380    3.4320   -1.1030 c3        1 MOL     -0.254986
     76 C24         3.4770    4.4090   -0.4610 c         1 MOL      0.795831
     77 O12         3.8850    5.3380    0.2480 o         1 MOL     -0.546293
     78 H34         5.7900    3.6690    0.4950 hn        1 MOL      0.261158
     79 H35         3.9840    2.4430   -1.1400 h1        1 MOL      0.067813
     80 H36         4.5990    3.7710   -2.1250 h1        1 MOL      0.067813
     81 N9          2.1700    4.3200   -0.8080 n         1 MOL     -0.677833
     82 C25         1.1460    5.2130   -0.1840 c3        1 MOL      0.260913
     83 C26        -0.1720    4.4360    0.2080 c         1 MOL      0.606880
     84 O13        -0.3370    3.2440   -0.0200 o         1 MOL     -0.541532
     85 C27         0.8660    6.3510   -1.2530 c3        1 MOL     -0.275363
     86 C28         0.0460    7.5700   -0.7760 ca        1 MOL      0.063054
     87 C29        -1.1920    7.9640   -1.3450 ca        1 MOL     -0.108672
     88 C30         0.5790    8.4280    0.2310 ca        1 MOL     -0.108672
     89 C31        -1.9060    8.9940   -0.7200 ca        1 MOL     -0.284055
     90 C32        -0.0840    9.5070    0.7510 ca        1 MOL     -0.284055
     91 C33        -1.3890    9.7560    0.3130 ca        1 MOL      0.341424
     92 O14        -2.2810   10.6810    0.8610 oh        1 MOL     -0.510264
     93 H37         1.8760    3.5650   -1.4140 hn        1 MOL      0.341831
     94 H38         1.5990    5.7400    0.6650 h1        1 MOL      0.015318
     95 H39         0.4070    5.8140   -2.0820 hc        1 MOL      0.095663
     96 H40         1.9200    6.5080   -1.4790 hc        1 MOL      0.095663
     97 H41        -1.7150    7.4890   -2.1620 ha        1 MOL      0.136874
     98 H42         1.5720    8.1840    0.5990 ha        1 MOL      0.136874
     99 H43        -2.9040    9.2090   -1.0830 ha        1 MOL      0.147282
    100 H44         0.2540   10.0900    1.5990 ha        1 MOL      0.147282
    101 H45        -1.8240   11.2640    1.4860 ho        1 MOL      0.371127
    102 N10        -1.1650    5.0750    0.8100 n         1 MOL     -0.511844
    103 C34        -2.4320    4.5070    1.2520 c3        1 MOL     -0.103800
    104 C35        -3.3210    4.4670    0.0510 c         1 MOL      0.636936
    105 O15        -3.4000    5.3660   -0.7860 o         1 MOL     -0.513286
    106 C36        -3.1040    5.2700    2.4360 c3        1 MOL     -0.010251
    107 C37        -2.5050    4.8930    3.8240 c3        1 MOL      0.050423
    108 C38        -3.1360    6.8020    2.2520 c3        1 MOL      0.087004
    109 C39        -3.2350    5.2630    5.1390 c3        1 MOL     -0.306266
    110 H46        -1.0220    6.0610    0.9730 hn        1 MOL      0.238059
    111 H47        -2.4150    3.4500    1.5100 h1        1 MOL      0.132600
    112 H48        -4.1390    4.9710    2.6080 hc        1 MOL      0.031785
    113 H49        -1.5790    5.4670    3.9050 hc        1 MOL      0.017938
    114 H50        -2.2820    3.8260    3.7710 hc        1 MOL      0.017938
    115 H51        -2.1800    7.3020    2.4180 hc        1 MOL     -0.004790
    116 H52        -3.5620    7.0310    1.2720 hc        1 MOL     -0.004790
    117 H53        -3.7630    7.2840    3.0030 hc        1 MOL     -0.004790
    118 H54        -2.4760    5.0360    5.8850 hc        1 MOL      0.080848
    119 H55        -3.4460    6.3210    5.2110 hc        1 MOL      0.080848
    120 H56        -4.1410    4.6760    5.2780 hc        1 MOL      0.080848
    121 N11        -4.1040    3.4030   -0.0900 n         1 MOL     -0.427256
    122 C40        -5.2080    3.1870   -1.0840 c3        1 MOL     -0.006347
    123 C41        -5.0700    1.8340   -1.7840 c         1 MOL      0.625606
    124 O16        -4.4630    0.9610   -1.2370 o         1 MOL     -0.478331
    125 C42        -6.5810    3.1250   -0.3580 c3        1 MOL      0.081953
    126 O17        -6.7200    2.1850    0.6280 oh        1 MOL     -0.548680
    127 H57        -3.9700    2.6280    0.5550 hn        1 MOL      0.266034
    128 H58        -5.2330    3.9260   -1.8910 h1        1 MOL      0.061663
    129 H59        -7.4580    3.0190   -1.0080 h1        1 MOL      0.010674
    130 H60        -6.6710    4.0880    0.1540 h1        1 MOL      0.010674
    131 H61        -7.6710    2.1320    0.7790 ho        1 MOL      0.414927
    132 N12        -5.6990    1.8250   -2.9830 n         1 MOL     -0.551251
    133 C43        -5.9390    0.6580   -3.7760 c3        1 MOL      0.290067
    134 C44        -6.3420   -0.6320   -2.9690 c         1 MOL      0.416175
    135 O18        -5.8600   -1.7530   -3.0930 o         1 MOL     -0.493341
    136 C45        -4.7970    0.4720   -4.7560 c3        1 MOL     -0.428557
    137 H62        -6.1870    2.6910   -3.1660 hn        1 MOL      0.303612
    138 H63        -6.8350    0.8920   -4.3470 h1        1 MOL      0.022237
    139 H64        -4.8220    1.3780   -5.3570 hc        1 MOL      0.126266
    140 H65        -3.7990    0.3640   -4.3310 hc        1 MOL      0.126266
    141 H66        -5.0030   -0.3860   -5.3880 hc        1 MOL      0.126266
    142 N13        -7.2420   -0.4230   -2.0390 n         1 MOL     -0.341815
    143 C46        -8.0000   -1.3500   -1.2010 c3        1 MOL      0.251497
    144 C47        -7.0660   -2.4020   -0.5110 c         1 MOL      0.332795
    145 O19        -6.9790   -3.5380   -0.8880 o         1 MOL     -0.487742
    146 C48        -9.1050   -1.9740   -2.0510 c3        1 MOL     -0.338481
    147 H67        -7.5490    0.5370   -1.9850 hn        1 MOL      0.196198
    148 H68        -8.4990   -0.8330   -0.3810 h1        1 MOL      0.015148
    149 H69        -9.7760   -2.6050   -1.4710 hc        1 MOL      0.097978
    150 H70        -9.6990   -1.1950   -2.5260 hc        1 MOL      0.097978
    151 H71        -8.7330   -2.5380   -2.9040 hc        1 MOL      0.097978
    152 N14        -6.3560   -1.9890    0.5390 n         1 MOL     -0.276024
    153 C49        -5.3900   -2.7860    1.2960 c3        1 MOL     -0.097107
    154 C50        -6.1120   -3.4860    2.4450 c         1 MOL      0.602265
    155 O20        -5.6780   -4.6010    2.7410 o         1 MOL     -0.551154
    156 C51        -4.2200   -1.7970    1.9060 c3        1 MOL      0.099154
    157 C52        -2.9630   -2.5580    2.3320 c3        1 MOL     -0.285597
    158 C53        -2.4240   -3.3500    1.1370 c         1 MOL      0.884575
    159 O21        -2.3290   -2.8480   -0.0090 o         1 MOL     -0.779224
    160 O22        -2.0030   -4.5120    1.2840 o         1 MOL     -0.779224
    161 H72        -6.5640   -1.0310    0.7840 hn        1 MOL      0.158901
    162 H73        -5.0080   -3.5490    0.6210 h1        1 MOL      0.107787
    163 H74        -4.6580   -1.1420    2.6520 hc        1 MOL      0.013888
    164 H75        -3.8870   -1.0710    1.1640 hc        1 MOL      0.013888
    165 H76        -3.0250   -3.0740    3.2900 hc        1 MOL      0.048742
    166 H77        -2.2350   -1.7650    2.4740 hc        1 MOL      0.048742
    167 N15        -7.1340   -2.9110    3.0430 n         1 MOL     -0.328797
    168 C54        -7.8930   -3.3720    4.2200 c3        1 MOL     -0.309388
    169 H78        -7.2060   -3.8090    4.9450 h1        1 MOL      0.135402
    170 H79        -8.4100   -2.5270    4.6740 h1        1 MOL      0.135402
    171 H80        -8.6220   -4.1220    3.9120 h1        1 MOL      0.135402
    172 H81        -7.2770   -1.9570    2.7440 hn        1 MOL      0.240204
    173 Ca1        -1.8900   -5.1060   -1.5070 Ca        1 MOL      1.791915
    174 O23        -1.1110   -7.4810   -0.5520 oh        1 MOL     -0.842002
    175 H82        -0.2230   -7.7920   -0.4010 ho        1 MOL      0.416200
    176 H83        -1.6520   -8.2610   -0.4390 ho        1 MOL      0.416200
    177 O24        -4.1170   -6.4730   -0.0590 oh        1 MOL     -0.842002
    178 H84        -4.0800   -6.4960    0.8960 ho        1 MOL      0.416200
    179 H85        -4.6910   -7.2110   -0.2940 ho        1 MOL      0.416200
    180 O25        -1.6980   -2.9740   -3.1020 oh        1 MOL     -0.842002
    181 H86        -1.9600   -2.1980   -2.5860 ho        1 MOL      0.416200
    182 H87        -1.7890   -2.6940   -4.0130 ho        1 MOL      0.416200
    183 O26        -2.3660   -6.8430   -3.3700 oh        1 MOL     -0.842002
    184 H88        -1.8130   -7.5860   -3.6170 ho        1 MOL      0.416200
    185 H89        -3.0080   -6.7710   -4.0660 ho        1 MOL      0.416200
    186 O27        -4.2600   -3.9850   -2.0260 oh        1 MOL     -0.842002
    187 H90        -4.9340   -4.2320   -1.3870 ho        1 MOL      0.416200
    188 H91        -4.6170   -3.2160   -2.4600 ho        1 MOL      0.416200
@<TRIPOS>BOND
     1    1    2 1   
     2    1    4 1   
     3    1    5 1   
     4    1    6 1   
     5    2    3 2   
     6    2    7 1   
     7    7    8 1   
     8    7   15 1   
     9    8    9 1   
    10    8   11 1   
    11    8   16 1   
    12    9   10 2   
    13    9   19 1   
    14   11   12 1   
    15   11   17 1   
    16   11   18 1   
    17   12   13 1   
    18   12   14 1   
    19   19   20 1   
    20   19   28 1   
    21   20   21 1   
    22   20   23 1   
    23   20   29 1   
    24   21   22 2   
    25   21   41 1   
    26   23   24 1   
    27   23   30 1   
    28   23   31 1   
    29   24   25 1   
    30   24   32 1   
    31   24   33 1   
    32   25   26 1   
    33   25   34 1   
    34   25   35 1   
    35   26   27 1   
    36   26   36 1   
    37   26   37 1   
    38   27   38 1   
    39   27   39 1   
    40   27   40 1   
    41   41   42 1   
    42   41   49 1   
    43   42   43 1   
    44   42   45 1   
    45   42   50 1   
    46   43   44 2   
    47   43   53 1   
    48   45   46 1   
    49   45   51 1   
    50   45   52 1   
    51   46   47 1   
    52   46   48 1   
    53   53   54 1   
    54   53   57 1   
    55   54   55 1   
    56   54   58 1   
    57   54   59 1   
    58   55   56 2   
    59   55   60 1   
    60   60   61 1   
    61   60   68 1   
    62   61   62 1   
    63   61   64 1   
    64   61   69 1   
    65   62   63 2   
    66   62   74 1   
    67   64   65 1   
    68   64   70 1   
    69   64   71 1   
    70   65   66 1   
    71   65   67 2   
    72   66   72 1   
    73   66   73 1   
    74   74   75 1   
    75   74   78 1   
    76   75   76 1   
    77   75   79 1   
    78   75   80 1   
    79   76   77 2   
    80   76   81 1   
    81   81   82 1   
    82   81   93 1   
    83   82   83 1   
    84   82   85 1   
    85   82   94 1   
    86   83   84 2   
    87   83  102 1   
    88   85   86 1   
    89   85   95 1   
    90   85   96 1   
    91   86   87 ar  
    92   86   88 ar  
    93   87   89 ar  
    94   87   97 1   
    95   88   90 ar  
    96   88   98 1   
    97   89   91 ar  
    98   89   99 1   
    99   90   91 ar  
   100   90  100 1   
   101   91   92 1   
   102   92  101 1   
   103  102  103 1   
   104  102  110 1   
   105  103  104 1   
   106  103  106 1   
   107  103  111 1   
   108  104  105 2   
   109  104  121 1   
   110  106  107 1   
   111  106  108 1   
   112  106  112 1   
   113  107  109 1   
   114  107  113 1   
   115  107  114 1   
   116  108  115 1   
   117  108  116 1   
   118  108  117 1   
   119  109  118 1   
   120  109  119 1   
   121  109  120 1   
   122  121  122 1   
   123  121  127 1   
   124  122  123 1   
   125  122  125 1   
   126  122  128 1   
   127  123  124 2   
   128  123  132 1   
   129  125  126 1   
   130  125  129 1   
   131  125  130 1   
   132  126  131 1   
   133  132  133 1   
   134  132  137 1   
   135  133  134 1   
   136  133  136 1   
   137  133  138 1   
   138  134  135 2   
   139  134  142 1   
   140  136  139 1   
   141  136  140 1   
   142  136  141 1   
   143  142  143 1   
   144  142  147 1   
   145  143  144 1   
   146  143  146 1   
   147  143  148 1   
   148  144  145 2   
   149  144  152 1   
   150  146  149 1   
   151  146  150 1   
   152  146  151 1   
   153  152  153 1   
   154  152  161 1   
   155  153  154 1   
   156  153  156 1   
   157  153  162 1   
   158  154  155 2   
   159  154  167 1   
   160  156  157 1   
   161  156  163 1   
   162  156  164 1   
   163  157  158 1   
   164  157  165 1   
   165  157  166 1   
   166  158  159 1   
   167  158  160 1   
   168  167  168 1   
   169  167  172 1   
   170  168  169 1   
   171  168  170 1   
   172  168  171 1   
   173  174  175 1   
   174  174  176 1   
   175  177  178 1   
   176  177  179 1   
   177  180  181 1   
   178  180  182 1   
   179  183  184 1   
   180  183  185 1   
   181  186  187 1   
   182  186  188 1   
@<TRIPOS>SUBSTRUCTURE
     1 MOL         1 TEMP              0 ****  ****    0 ROOT
