@<TRIPOS>MOLECULE
MOL
  189   185     1     0     0
SMALL
resp


@<TRIPOS>ATOM
      1 C1        -12.3990    4.4160    4.2820 c3        1 MOL     -0.355749
      2 C2        -12.3040    3.3740    3.1490 c         1 MOL      0.589095
      3 O1        -13.0400    2.4110    3.2050 o         1 MOL     -0.578433
      4 H1        -11.4000    4.6320    4.6610 hc        1 MOL      0.092445
      5 H2        -12.8460    5.3320    3.8980 hc        1 MOL      0.092445
      6 H3        -13.0160    4.0210    5.0890 hc        1 MOL      0.092445
      7 N1        -11.6740    3.6320    2.0490 n         1 MOL     -0.114978
      8 C3        -11.5360    2.8600    0.8170 c3        1 MOL     -0.394036
      9 C4        -10.5160    1.8230    0.8850 c         1 MOL      0.541235
     10 O2         -9.6090    1.9530    1.7080 o         1 MOL     -0.504075
     11 C5        -11.3480    3.8410   -0.4100 c3        1 MOL     -0.288881
     12 C6        -10.3350    4.9510   -0.2840 c         1 MOL      0.736596
     13 O3         -9.5160    4.9710    0.6740 o         1 MOL     -0.711627
     14 O4        -10.3060    5.7850   -1.2420 o         1 MOL     -0.711627
     15 H4        -10.9470    4.3320    2.0620 hn        1 MOL      0.154990
     16 H5        -12.4710    2.3290    0.6210 h1        1 MOL      0.167778
     17 H6        -12.3150    4.3440   -0.5050 hc        1 MOL      0.152411
     18 H7        -11.0630    3.3600   -1.3480 hc        1 MOL      0.152411
     19 N2        -10.6340    0.7860    0.0380 n         1 MOL     -0.335121
     20 C7         -9.8900   -0.5010    0.2440 c3        1 MOL      0.013941
     21 C8         -8.3870   -0.3350    0.0240 c         1 MOL      0.253540
     22 O5         -7.6180   -1.2280    0.4190 o         1 MOL     -0.424674
     23 C9        -10.4390   -1.6340   -0.6420 c3        1 MOL     -0.214648
     24 C10       -10.5710   -3.0320   -0.0320 c3        1 MOL      0.050902
     25 C11       -10.8950   -4.1570   -1.0550 c3        1 MOL     -0.341732
     26 C12        -9.7340   -4.3630   -2.0850 c3        1 MOL      0.257309
     27 N3        -10.1450   -5.4030   -3.1090 n4        1 MOL     -0.561792
     28 H8        -11.4540    0.8010   -0.5530 hn        1 MOL      0.245344
     29 H9         -9.9020   -0.7240    1.3090 h1        1 MOL      0.113014
     30 H10        -9.8480   -1.7690   -1.5460 hc        1 MOL      0.080176
     31 H11       -11.4290   -1.2990   -0.9560 hc        1 MOL      0.080176
     32 H12       -11.2910   -3.1100    0.7840 hc        1 MOL      0.055138
     33 H13        -9.6980   -3.2680    0.5870 hc        1 MOL      0.055138
     34 H14       -11.8670   -4.0210   -1.5160 hc        1 MOL      0.103918
     35 H15       -11.1040   -5.0490   -0.4670 hc        1 MOL      0.103918
     36 H16        -8.8610   -4.7050   -1.5450 hx        1 MOL      0.055015
     37 H17        -9.4930   -3.4300   -2.5860 hx        1 MOL      0.055015
     38 H18       -11.0060   -5.2070   -3.6060 hn        1 MOL      0.367419
     39 H19        -9.4580   -5.4840   -3.8450 hn        1 MOL      0.367419
     40 H20       -10.1930   -6.3150   -2.6660 hn        1 MOL      0.367419
     41 N4         -7.9240    0.6800   -0.6730 n         1 MOL      0.067176
     42 C13        -6.5230    0.7850   -1.1930 c3        1 MOL     -0.389056
     43 C14        -5.6370    1.3140   -0.0700 c         1 MOL      0.544027
     44 O6         -6.0410    2.2080    0.7010 o         1 MOL     -0.675602
     45 C15        -6.4430    1.6010   -2.5450 c3        1 MOL     -0.338369
     46 C16        -7.1030    3.0220   -2.4900 c         1 MOL      0.549753
     47 O7         -7.3970    3.4080   -3.6690 o         1 MOL     -0.589634
     48 O8         -7.6220    3.4870   -1.5230 o         1 MOL     -0.589634
     49 H21        -8.5530    1.4430   -0.8900 hn        1 MOL      0.193718
     50 H22        -6.0510   -0.2000   -1.2880 h1        1 MOL      0.224034
     51 H23        -6.8760    1.0180   -3.3700 hc        1 MOL      0.131411
     52 H24        -5.3700    1.7100   -2.7040 hc        1 MOL      0.131411
     53 N5         -4.3380    1.0170    0.0140 n         1 MOL     -0.323801
     54 C17        -3.6800   -0.0940   -0.6600 c3        1 MOL     -0.131722
     55 C18        -4.2300   -1.4640   -0.3200 c         1 MOL      0.759310
     56 O9         -4.1550   -1.8300    0.8460 o         1 MOL     -0.564207
     57 H25        -3.8940    1.5370    0.7630 hn        1 MOL      0.281056
     58 H26        -2.6310   -0.1280   -0.3590 h1        1 MOL      0.086372
     59 H27        -3.7660    0.0860   -1.7240 h1        1 MOL      0.086372
     60 N6         -4.6300   -2.2960   -1.3050 n         1 MOL     -0.742031
     61 C19        -4.9770   -3.7010   -1.1360 c3        1 MOL      0.103100
     62 C20        -3.6830   -4.5150   -1.2190 c         1 MOL      0.567055
     63 O10        -3.0900   -4.7650   -2.2800 o         1 MOL     -0.511111
     64 C21        -5.9980   -4.0460   -2.2140 c3        1 MOL     -0.430201
     65 C22        -6.3020   -5.5010   -2.1620 c         1 MOL      0.745298
     66 O11        -7.0160   -5.9430   -1.2260 o         1 MOL     -0.697191
     67 O12        -5.9400   -6.2970   -3.0280 o         1 MOL     -0.697191
     68 H28        -4.7510   -1.9470   -2.2500 hn        1 MOL      0.367499
     69 H29        -5.4610   -3.8680   -0.1770 h1        1 MOL      0.047313
     70 H30        -5.5010   -3.7820   -3.1430 hc        1 MOL      0.105847
     71 H31        -6.9430   -3.5070   -2.1820 hc        1 MOL      0.105847
     72 N7         -3.2580   -5.0860   -0.0930 n         1 MOL     -0.215693
     73 C23        -2.2960   -6.1900   -0.0460 c3        1 MOL     -0.270351
     74 C24        -0.8220   -5.8460    0.3510 c         1 MOL      0.648563
     75 O13        -0.0080   -6.7250    0.4350 o         1 MOL     -0.567038
     76 H32        -3.7970   -4.8380    0.7270 hn        1 MOL      0.238847
     77 H33        -2.2120   -6.6490   -1.0390 h1        1 MOL      0.141337
     78 H34        -2.5860   -6.9090    0.7140 h1        1 MOL      0.141337
     79 N8         -0.4740   -4.5780    0.5820 n         1 MOL     -0.409251
     80 C25         0.8120   -4.1210    1.1050 c3        1 MOL     -0.035625
     81 C26         1.2110   -2.7600    0.5040 c         1 MOL      0.610229
     82 O14         0.3980   -1.9230    0.1470 o         1 MOL     -0.517463
     83 C27         0.8020   -3.8810    2.6430 c3        1 MOL      0.547142
     84 C28        -0.5110   -3.4210    3.2550 c3        1 MOL     -0.404479
     85 O15         1.0400   -5.0630    3.2790 oh        1 MOL     -0.633880
     86 H35        -1.1620   -3.8420    0.5830 hn        1 MOL      0.166152
     87 H36         1.5400   -4.8790    0.8080 h1        1 MOL      0.066074
     88 H37         1.5370   -3.1180    2.9060 h1        1 MOL     -0.083759
     89 H38         1.8640   -5.4770    3.0060 ho        1 MOL      0.372522
     90 H39        -0.2620   -2.9640    4.2030 hc        1 MOL      0.111135
     91 H40        -0.9600   -2.6550    2.6240 hc        1 MOL      0.111135
     92 H41        -1.1450   -4.2840    3.4610 hc        1 MOL      0.111135
     93 N9          2.5140   -2.5190    0.5870 n         1 MOL     -0.537518
     94 C29         3.1590   -1.2470    0.2160 c3        1 MOL      0.019281
     95 C30         4.4250   -1.3910   -0.5960 c         1 MOL      0.636587
     96 O16         4.6830   -0.7450   -1.6380 o         1 MOL     -0.538408
     97 C31         3.4470   -0.4770    1.5110 c3        1 MOL     -0.009375
     98 C32         2.2680   -0.0460    2.3940 c3        1 MOL      0.246198
     99 C33         4.0940    0.8920    1.1980 c3        1 MOL     -0.334910
    100 C34         2.5400    0.0020    3.9060 c3        1 MOL     -0.412148
    101 H42         3.1250   -3.1310    1.1060 hn        1 MOL      0.232458
    102 H43         2.4340   -0.7000   -0.3910 h1        1 MOL      0.083948
    103 H44         4.1490   -1.0940    2.0710 hc        1 MOL      0.034840
    104 H45         1.3830   -0.6620    2.2160 hc        1 MOL     -0.016277
    105 H46         1.8910    0.9250    2.0630 hc        1 MOL     -0.016277
    106 H47         5.0670    0.8010    0.7160 hc        1 MOL      0.094784
    107 H48         3.3890    1.4270    0.5640 hc        1 MOL      0.094784
    108 H49         4.1240    1.4640    2.1260 hc        1 MOL      0.094784
    109 H50         1.7640    0.6690    4.2890 hc        1 MOL      0.097547
    110 H51         2.5030   -1.0350    4.2260 hc        1 MOL      0.097547
    111 H52         3.5160    0.4160    4.1450 hc        1 MOL      0.097547
    112 N10         5.2870   -2.2340   -0.1000 n         1 MOL     -0.554148
    113 C35         6.7520   -2.4620   -0.5130 c3        1 MOL     -0.013039
    114 C36         7.7280   -2.3950    0.6680 c         1 MOL      0.693580
    115 O17         7.3830   -2.5900    1.8480 o         1 MOL     -0.577032
    116 C37         6.8510   -3.7330   -1.2630 c3        1 MOL      0.343491
    117 C38         6.4870   -3.6200   -2.7190 c3        1 MOL     -0.321456
    118 O18         8.1750   -4.3120   -1.4270 oh        1 MOL     -0.640082
    119 H53         4.9720   -2.7450    0.7170 hn        1 MOL      0.281707
    120 H54         6.9890   -1.5950   -1.1290 h1        1 MOL      0.116991
    121 H55         6.2030   -4.4770   -0.7810 h1        1 MOL      0.067181
    122 H56         8.5660   -3.8770   -2.1940 ho        1 MOL      0.380858
    123 H57         5.4990   -3.1860   -2.6100 hc        1 MOL      0.089006
    124 H58         7.1390   -2.9430   -3.2600 hc        1 MOL      0.089006
    125 H59         6.3120   -4.5250   -3.2980 hc        1 MOL      0.089006
    126 N11         8.9840   -2.1940    0.4650 n         1 MOL     -0.634962
    127 C39        10.0720   -2.0800    1.4670 c3        1 MOL      0.103439
    128 C40        10.6260   -0.6590    1.6800 c         1 MOL      0.583960
    129 O19        10.9590   -0.2760    2.8230 o         1 MOL     -0.574450
    130 C41        11.1590   -3.1840    1.1030 c3        1 MOL      0.298114
    131 C42        12.2460   -3.2070    2.1970 c3        1 MOL     -0.359079
    132 O20        11.7670   -2.6930   -0.0420 oh        1 MOL     -0.619587
    133 H60         9.1890   -2.1800   -0.5240 hn        1 MOL      0.274419
    134 H61         9.6900   -2.3570    2.4510 h1        1 MOL      0.106674
    135 H62        10.7640   -4.1920    0.9200 h1        1 MOL      0.041900
    136 H63        12.1350   -3.4730   -0.4460 ho        1 MOL      0.397160
    137 H64        11.7180   -3.2410    3.1530 hc        1 MOL      0.086077
    138 H65        12.9170   -4.0450    2.0090 hc        1 MOL      0.086077
    139 H66        12.8200   -2.2780    2.2010 hc        1 MOL      0.086077
    140 N12        10.5340    0.1390    0.6510 n         1 MOL     -0.339335
    141 C43        10.9860    1.5140    0.4910 c3        1 MOL      0.000005
    142 C44        10.0230    2.2920   -0.4540 c         1 MOL      0.568418
    143 O21         9.3370    1.6540   -1.2170 o         1 MOL     -0.478422
    144 C45        12.4370    1.5650   -0.1260 c3        1 MOL     -0.050756
    145 C46        13.4110    0.9350    0.8680 c3        1 MOL     -0.000179
    146 C47        14.9180    1.0830    0.4920 c3        1 MOL     -0.115235
    147 C48        15.2880    0.2220   -0.7340 c3        1 MOL      0.193058
    148 N13        16.7330    0.0710   -0.9820 n4        1 MOL     -0.327824
    149 H67        10.1400   -0.3210   -0.1520 hn        1 MOL      0.215790
    150 H68        11.0570    2.1230    1.3870 h1        1 MOL      0.087542
    151 H69        12.6810    2.6130   -0.3010 hc        1 MOL      0.039161
    152 H70        12.4950    1.0370   -1.0840 hc        1 MOL      0.039161
    153 H71        13.2140   -0.1330    1.0060 hc        1 MOL      0.043337
    154 H72        13.2770    1.3840    1.8520 hc        1 MOL      0.043337
    155 H73        15.5910    0.7100    1.2570 hc        1 MOL      0.040673
    156 H74        15.1790    2.1240    0.2770 hc        1 MOL      0.040673
    157 H75        14.7250    0.6530   -1.5680 hx        1 MOL      0.027763
    158 H76        14.7850   -0.7410   -0.6670 hx        1 MOL      0.027763
    159 H77        16.8330   -0.3310   -1.9100 hn        1 MOL      0.251878
    160 H78        17.2780    0.9220   -0.8810 hn        1 MOL      0.251878
    161 H79        17.1810   -0.5390   -0.3110 hn        1 MOL      0.251878
    162 N14         9.9450    3.6480   -0.3730 n         1 MOL     -0.636369
    163 C49         8.9480    4.3980   -1.1210 c3        1 MOL      0.329340
    164 C50         7.4710    3.9620   -1.0050 c         1 MOL      0.307667
    165 O22         6.9200    3.4050   -1.9350 o         1 MOL     -0.487389
    166 C51         9.2450    5.8690   -1.0500 c3        1 MOL     -0.079649
    167 C52         8.2020    6.5650   -1.9780 c3        1 MOL     -0.114668
    168 C53         8.5650    8.0130   -2.2260 c         1 MOL      0.670097
    169 O23         8.8060    8.7430   -1.2160 o         1 MOL     -0.644126
    170 O24         8.6900    8.4420   -3.4220 o         1 MOL     -0.644126
    171 H80        10.5030    4.1510    0.3090 hn        1 MOL      0.307814
    172 H81         9.2220    4.0550   -2.1230 h1        1 MOL      0.035861
    173 H82        10.2500    6.0540   -1.4220 hc        1 MOL      0.027812
    174 H83         9.2420    6.2810   -0.0420 hc        1 MOL      0.027812
    175 H84         7.2250    6.5920   -1.4950 hc        1 MOL      0.026812
    176 H85         8.1850    6.0190   -2.9200 hc        1 MOL      0.026812
    177 N15         6.7500    4.1590    0.1310 n         1 MOL     -0.292048
    178 C54         7.0520    4.8020    1.4630 c3        1 MOL     -0.091362
    179 H86         8.1080    5.0680    1.5060 h1        1 MOL      0.066683
    180 H87         6.4460    5.7010    1.5790 h1        1 MOL      0.066683
    181 H88         6.8210    4.1020    2.2670 h1        1 MOL      0.066683
    182 H89         5.8350    3.7160    0.1140 hn        1 MOL      0.258820
    183 Ca1        -6.9950    4.6280    0.7450 Ca        1 MOL      1.807283
    184 O25        -7.5960    6.6140   -1.0420 oh        1 MOL     -1.052316
    185 H90        -7.3770    7.4390   -1.4640 ho        1 MOL      0.491787
    186 H91        -8.5280    6.4910   -1.2390 ho        1 MOL      0.491787
    187 O26        -7.6910    3.3080    2.9530 oh        1 MOL     -1.052316
    188 H92        -7.8840    2.3820    2.7900 ho        1 MOL      0.491787
    189 H93        -7.9950    3.4720    3.8460 ho        1 MOL      0.491787
@<TRIPOS>BOND
     1    1    2 1   
     2    1    4 1   
     3    1    5 1   
     4    1    6 1   
     5    2    3 2   
     6    2    7 1   
     7    7    8 1   
     8    7   15 1   
     9    8    9 1   
    10    8   11 1   
    11    8   16 1   
    12    9   10 2   
    13    9   19 1   
    14   11   12 1   
    15   11   17 1   
    16   11   18 1   
    17   12   13 1   
    18   12   14 1   
    19   19   20 1   
    20   19   28 1   
    21   20   21 1   
    22   20   23 1   
    23   20   29 1   
    24   21   22 2   
    25   21   41 1   
    26   23   24 1   
    27   23   30 1   
    28   23   31 1   
    29   24   25 1   
    30   24   32 1   
    31   24   33 1   
    32   25   26 1   
    33   25   34 1   
    34   25   35 1   
    35   26   27 1   
    36   26   36 1   
    37   26   37 1   
    38   27   38 1   
    39   27   39 1   
    40   27   40 1   
    41   41   42 1   
    42   41   49 1   
    43   42   43 1   
    44   42   45 1   
    45   42   50 1   
    46   43   44 2   
    47   43   53 1   
    48   45   46 1   
    49   45   51 1   
    50   45   52 1   
    51   46   47 1   
    52   46   48 1   
    53   53   54 1   
    54   53   57 1   
    55   54   55 1   
    56   54   58 1   
    57   54   59 1   
    58   55   56 2   
    59   55   60 1   
    60   60   61 1   
    61   60   68 1   
    62   61   62 1   
    63   61   64 1   
    64   61   69 1   
    65   62   63 2   
    66   62   72 1   
    67   64   65 1   
    68   64   70 1   
    69   64   71 1   
    70   65   66 1   
    71   65   67 1   
    72   72   73 1   
    73   72   76 1   
    74   73   74 1   
    75   73   77 1   
    76   73   78 1   
    77   74   75 2   
    78   74   79 1   
    79   79   80 1   
    80   79   86 1   
    81   80   81 1   
    82   80   83 1   
    83   80   87 1   
    84   81   82 2   
    85   81   93 1   
    86   83   84 1   
    87   83   85 1   
    88   83   88 1   
    89   84   90 1   
    90   84   91 1   
    91   84   92 1   
    92   85   89 1   
    93   93   94 1   
    94   93  101 1   
    95   94   95 1   
    96   94   97 1   
    97   94  102 1   
    98   95   96 2   
    99   95  112 1   
   100   97   98 1   
   101   97   99 1   
   102   97  103 1   
   103   98  100 1   
   104   98  104 1   
   105   98  105 1   
   106   99  106 1   
   107   99  107 1   
   108   99  108 1   
   109  100  109 1   
   110  100  110 1   
   111  100  111 1   
   112  112  113 1   
   113  112  119 1   
   114  113  114 1   
   115  113  116 1   
   116  113  120 1   
   117  114  115 2   
   118  114  126 1   
   119  116  117 1   
   120  116  118 1   
   121  116  121 1   
   122  117  123 1   
   123  117  124 1   
   124  117  125 1   
   125  118  122 1   
   126  126  127 1   
   127  126  133 1   
   128  127  128 1   
   129  127  130 1   
   130  127  134 1   
   131  128  129 2   
   132  128  140 1   
   133  130  131 1   
   134  130  132 1   
   135  130  135 1   
   136  131  137 1   
   137  131  138 1   
   138  131  139 1   
   139  132  136 1   
   140  140  141 1   
   141  140  149 1   
   142  141  142 1   
   143  141  144 1   
   144  141  150 1   
   145  142  143 2   
   146  142  162 1   
   147  144  145 1   
   148  144  151 1   
   149  144  152 1   
   150  145  146 1   
   151  145  153 1   
   152  145  154 1   
   153  146  147 1   
   154  146  155 1   
   155  146  156 1   
   156  147  148 1   
   157  147  157 1   
   158  147  158 1   
   159  148  159 1   
   160  148  160 1   
   161  148  161 1   
   162  162  163 1   
   163  162  171 1   
   164  163  164 1   
   165  163  166 1   
   166  163  172 1   
   167  164  165 2   
   168  164  177 1   
   169  166  167 1   
   170  166  173 1   
   171  166  174 1   
   172  167  168 1   
   173  167  175 1   
   174  167  176 1   
   175  168  169 1   
   176  168  170 1   
   177  177  178 1   
   178  177  182 1   
   179  178  179 1   
   180  178  180 1   
   181  178  181 1   
   182  184  185 1   
   183  184  186 1   
   184  187  188 1   
   185  187  189 1   
@<TRIPOS>SUBSTRUCTURE
     1 MOL         1 TEMP              0 ****  ****    0 ROOT
