@<TRIPOS>MOLECULE
MOL
  178   175     1     0     0
SMALL
resp


@<TRIPOS>ATOM
      1 C1          2.5270   -1.0460    5.0580 c3        1 MOL     -0.251431
      2 C2          3.4930   -0.0980    4.3260 c         1 MOL      0.636585
      3 O1          3.0370    0.6790    3.5390 o         1 MOL     -0.568651
      4 H1          1.5170   -0.6390    5.0140 hc        1 MOL      0.059015
      5 H2          2.5450   -2.0250    4.5800 hc        1 MOL      0.059015
      6 H3          2.8330   -1.1440    6.1000 hc        1 MOL      0.059015
      7 N1          4.8360   -0.2210    4.5330 n         1 MOL     -0.451988
      8 C3          5.7920    0.6610    3.8880 c3        1 MOL      0.065830
      9 C4          6.2060    0.1440    2.5140 c         1 MOL      0.527165
     10 O2          6.8750    0.8660    1.8230 o         1 MOL     -0.545219
     11 C5          6.9270    0.7260    4.8970 c3        1 MOL     -0.171453
     12 C6          7.4860   -0.6050    5.2250 c         1 MOL      0.685440
     13 O3          8.6370   -0.9020    4.7500 o         1 MOL     -0.703065
     14 O4          6.9990   -1.4610    6.0390 o         1 MOL     -0.703065
     15 H4          5.1530   -0.8730    5.2430 hn        1 MOL      0.197219
     16 H5          5.4040    1.6670    3.7560 h1        1 MOL      0.055117
     17 H6          6.5280    1.1150    5.8310 hc        1 MOL      0.025509
     18 H7          7.6840    1.3840    4.4680 hc        1 MOL      0.025509
     19 N2          5.8790   -1.1520    2.3120 n         1 MOL     -0.434573
     20 C7          6.0740   -1.9600    1.1100 c3        1 MOL      0.121893
     21 C8          5.5180   -1.3640   -0.2450 c         1 MOL      0.508240
     22 O5          4.5150   -1.8500   -0.7670 o         1 MOL     -0.620773
     23 C9          7.5330   -2.5650    0.8660 c3        1 MOL     -0.170821
     24 H8          5.5420   -1.6690    3.1050 hn        1 MOL      0.309971
     25 H9          5.3950   -2.8030    1.2980 h1        1 MOL      0.040793
     26 H10         8.0660   -2.9190    1.7430 hc        1 MOL      0.056830
     27 H11         7.5290   -3.3310    0.0930 hc        1 MOL      0.056830
     28 H12         8.1710   -1.7850    0.4680 hc        1 MOL      0.056830
     29 N3          6.2170   -0.3950   -0.7600 n         1 MOL     -0.167399
     30 C10         5.9560    0.3110   -2.0900 c3        1 MOL     -0.175979
     31 C11         5.7510    1.8500   -2.0130 c         1 MOL      0.586084
     32 O6          5.7350    2.5470   -3.0350 o         1 MOL     -0.539380
     33 C12         6.9660   -0.0760   -3.1790 c3        1 MOL     -0.093708
     34 C13         7.6460   -1.5110   -3.0340 c         1 MOL      0.660120
     35 O7          8.8800   -1.5080   -2.8050 o         1 MOL     -0.680746
     36 O8          6.9280   -2.4770   -3.4060 o         1 MOL     -0.680746
     37 H13         7.1010   -0.1520   -0.3450 hn        1 MOL      0.220512
     38 H14         4.9780   -0.0880   -2.3670 h1        1 MOL      0.120889
     39 H15         7.7430    0.6770   -3.1070 hc        1 MOL      0.004521
     40 H16         6.5490    0.1260   -4.1620 hc        1 MOL      0.004521
     41 N4          5.4210    2.3700   -0.8180 n         1 MOL     -0.320675
     42 C14         5.0420    3.7540   -0.5980 c3        1 MOL     -0.044680
     43 C15         3.6950    4.1180   -1.3150 c         1 MOL      0.587952
     44 O9          3.5270    5.1670   -1.9660 o         1 MOL     -0.579286
     45 H17         5.3750    1.7530   -0.0160 hn        1 MOL      0.225744
     46 H18         5.8150    4.4090   -0.9840 h1        1 MOL      0.056483
     47 H19         5.0410    4.0030    0.4690 h1        1 MOL      0.056483
     48 N5          2.7700    3.1460   -1.2640 n         1 MOL     -0.334227
     49 C16         1.5610    3.3270   -2.0260 c3        1 MOL     -0.206995
     50 C17         0.7420    4.4350   -1.3450 c         1 MOL      0.489433
     51 O10         0.4550    4.4450   -0.1290 o         1 MOL     -0.520350
     52 C18         0.8050    1.9670   -2.1120 c3        1 MOL     -0.211822
     53 C19         1.5440    0.9180   -2.9770 c         1 MOL      0.753852
     54 N6          1.4890    1.0220   -4.2850 n         1 MOL     -0.771963
     55 O11         2.1550    0.0370   -2.5020 o         1 MOL     -0.684974
     56 H20         2.9670    2.2910   -0.7580 hn        1 MOL      0.304986
     57 H21         1.7980    3.6040   -3.0580 h1        1 MOL      0.126421
     58 H22        -0.1820    2.0640   -2.5640 hc        1 MOL      0.127818
     59 H23         0.5740    1.5370   -1.1370 hc        1 MOL      0.127818
     60 H24         1.0300    1.7990   -4.7440 hn        1 MOL      0.334329
     61 H25         2.0520    0.3610   -4.8090 hn        1 MOL      0.334329
     62 N7          0.4550    5.4520   -2.1690 n         1 MOL     -0.166257
     63 C20        -0.2230    6.6730   -1.6570 c3        1 MOL     -0.317685
     64 C21        -1.7360    6.3920   -1.5340 c         1 MOL      0.610573
     65 O12        -2.2980    5.6480   -2.3930 o         1 MOL     -0.527476
     66 H26         0.7210    5.3020   -3.1230 hn        1 MOL      0.218980
     67 H27        -0.0490    7.5060   -2.3520 h1        1 MOL      0.147112
     68 H28         0.1700    6.9420   -0.6720 h1        1 MOL      0.147112
     69 N8         -2.3720    6.9580   -0.5310 n         1 MOL     -0.481075
     70 C22        -3.8480    6.8610   -0.3600 c3        1 MOL     -0.165163
     71 C23        -4.2920    5.4730    0.1290 c         1 MOL      0.463195
     72 O13        -5.4800    5.3560    0.4430 o         1 MOL     -0.593686
     73 C24        -4.2480    7.9520    0.6790 c3        1 MOL      0.395288
     74 C25        -3.6860    7.7030    2.0610 c3        1 MOL     -0.254671
     75 O14        -3.7560    9.2510    0.2850 oh        1 MOL     -0.617610
     76 H29        -1.9810    7.7530   -0.0350 hn        1 MOL      0.264191
     77 H30        -4.3500    7.1080   -1.3050 h1        1 MOL      0.146201
     78 H31        -5.3340    8.0420    0.6620 h1        1 MOL      0.059310
     79 H32        -2.8100    9.1720    0.2760 ho        1 MOL      0.371081
     80 H33        -4.2470    6.9840    2.6640 hc        1 MOL      0.056362
     81 H34        -2.6590    7.3520    2.1320 hc        1 MOL      0.056362
     82 H35        -3.6790    8.6550    2.6030 hc        1 MOL      0.056362
     83 N9         -3.4830    4.4620    0.0630 n         1 MOL     -0.010023
     84 C26        -3.7470    3.0830    0.6330 c3        1 MOL     -0.115971
     85 C27        -2.9900    2.0020   -0.1970 c         1 MOL      0.355379
     86 O15        -2.1960    2.2760   -1.0480 o         1 MOL     -0.367159
     87 C28        -3.3530    3.0280    2.0850 c3        1 MOL      0.067585
     88 C29        -1.8960    3.5170    2.2330 c3        1 MOL      0.058567
     89 C30        -4.3560    3.6310    3.0570 c3        1 MOL     -0.257235
     90 C31        -1.2270    3.0680    3.5060 c3        1 MOL     -0.457247
     91 H36        -2.6260    4.6020   -0.4540 hn        1 MOL     -0.010195
     92 H37        -4.8020    2.8410    0.5080 h1        1 MOL      0.111920
     93 H38        -3.4520    1.9760    2.3540 hc        1 MOL      0.013182
     94 H39        -1.9930    4.6000    2.2530 hc        1 MOL      0.096625
     95 H40        -1.2820    3.1800    1.3900 hc        1 MOL      0.096625
     96 H41        -4.1000    3.5950    4.1260 hc        1 MOL      0.063640
     97 H42        -4.6060    4.6570    2.8020 hc        1 MOL      0.063640
     98 H43        -5.2710    3.0310    3.0390 hc        1 MOL      0.063640
     99 H44        -0.3630    2.4400    3.2660 hc        1 MOL      0.113766
    100 H45        -0.8930    3.9470    4.0580 hc        1 MOL      0.113766
    101 H46        -1.9120    2.4400    4.0840 hc        1 MOL      0.113766
    102 N10        -3.0390    0.7390    0.2050 n         1 MOL     -0.464291
    103 C32        -2.3000   -0.3680   -0.4300 c3        1 MOL      0.077652
    104 C33        -3.2090   -1.5490   -0.8780 c         1 MOL      0.571164
    105 O16        -2.8560   -2.7260   -0.6880 o         1 MOL     -0.579936
    106 C34        -1.0880   -0.6700    0.4520 c3        1 MOL     -0.333905
    107 C35         0.1950   -1.0950   -0.3040 c         1 MOL      0.743584
    108 O17         1.2790   -1.1150    0.2860 o         1 MOL     -0.730576
    109 O18         0.1190   -1.2710   -1.4900 o         1 MOL     -0.730576
    110 H47        -3.6170    0.5720    1.0160 hn        1 MOL      0.294259
    111 H48        -1.9530    0.0510   -1.3700 h1        1 MOL      0.041736
    112 H49        -1.3360   -1.4620    1.1630 hc        1 MOL      0.145519
    113 H50        -0.7680    0.2120    1.0020 hc        1 MOL      0.145519
    114 N11        -4.3970   -1.2470   -1.3180 n         1 MOL     -0.480331
    115 C36        -5.4570   -2.2140   -1.6910 c3        1 MOL      0.285126
    116 C37        -5.5800   -3.3800   -0.6440 c         1 MOL      0.231989
    117 O19        -5.6760   -3.0850    0.5410 o         1 MOL     -0.390992
    118 C38        -6.7450   -1.3980   -1.8440 c3        1 MOL     -0.215413
    119 C39        -6.9680   -0.2900   -0.7530 ca        1 MOL      0.096195
    120 C40        -7.5220   -0.6080    0.5080 ca        1 MOL     -0.180507
    121 C41        -6.8820    1.0230   -1.1330 ca        1 MOL     -0.180507
    122 C42        -7.9160    0.3970    1.4410 ca        1 MOL     -0.089860
    123 C43        -7.3140    1.9850   -0.2500 ca        1 MOL     -0.089860
    124 C44        -7.8230    1.6980    1.0440 ca        1 MOL     -0.124461
    125 H51        -4.6190   -0.3080   -1.5870 hn        1 MOL      0.298090
    126 H52        -5.0630   -2.6190   -2.6150 h1        1 MOL      0.018268
    127 H53        -7.6270   -2.0300   -1.8830 hc        1 MOL      0.068935
    128 H54        -6.6360   -1.0160   -2.8590 hc        1 MOL      0.068935
    129 H55        -7.6760   -1.6490    0.7690 ha        1 MOL      0.124268
    130 H56        -6.3350    1.2260   -2.0400 ha        1 MOL      0.124268
    131 H57        -8.4240    0.1470    2.3680 ha        1 MOL      0.113167
    132 H58        -7.2680    3.0060   -0.5990 ha        1 MOL      0.113167
    133 H59        -8.1610    2.5110    1.6730 ha        1 MOL      0.113620
    134 N12        -5.5310   -4.7050   -1.0220 n         1 MOL     -0.152188
    135 C45        -5.7010   -5.8630   -0.0870 c3        1 MOL      0.079266
    136 C46        -4.7390   -5.9450    1.1180 c         1 MOL      0.182481
    137 O20        -5.0830   -6.4550    2.1690 o         1 MOL     -0.496037
    138 C47        -5.5470   -7.1110   -1.0000 c3        1 MOL      0.108997
    139 C48        -5.9700   -6.5800   -2.4040 c3        1 MOL     -0.207035
    140 C49        -5.2780   -5.2350   -2.3530 c3        1 MOL      0.079310
    141 H60        -6.7500   -5.8790    0.2040 h1        1 MOL      0.061619
    142 H61        -4.4870   -7.3580   -1.0630 hc        1 MOL     -0.001233
    143 H62        -6.1580   -7.9760   -0.7570 hc        1 MOL     -0.001233
    144 H63        -5.5020   -7.0960   -3.2360 hc        1 MOL      0.061884
    145 H64        -7.0620   -6.5440   -2.4550 hc        1 MOL      0.061884
    146 H65        -4.2460   -5.3670   -2.6810 h1        1 MOL      0.022618
    147 H66        -5.7740   -4.5630   -3.0540 h1        1 MOL      0.022618
    148 N13        -3.5660   -5.3640    0.9830 n         1 MOL     -0.066550
    149 C50        -2.5370   -5.0440    2.0120 c3        1 MOL     -0.293384
    150 C51        -2.9680   -3.9480    3.0230 c         1 MOL      0.492626
    151 O21        -2.3140   -3.7910    4.0630 o         1 MOL     -0.571038
    152 C52        -1.3230   -4.6070    1.1920 c3        1 MOL      0.232783
    153 C53        -0.8110   -5.3710    0.0140 c3        1 MOL     -0.470784
    154 C54         0.3590   -4.5690   -0.7090 c         1 MOL      0.856629
    155 O22         1.3500   -4.1340   -0.0750 o         1 MOL     -0.754084
    156 O23         0.3780   -4.5000   -1.9780 o         1 MOL     -0.754084
    157 H67        -3.2550   -5.1610    0.0450 hn        1 MOL      0.271999
    158 H68        -2.4640   -5.9740    2.5750 h1        1 MOL      0.142754
    159 H69        -0.5680   -4.5660    1.9760 hc        1 MOL      0.022583
    160 H70        -1.5050   -3.5710    0.9250 hc        1 MOL      0.022583
    161 H71        -1.6140   -5.5350   -0.6990 hc        1 MOL      0.081453
    162 H72        -0.4210   -6.2850    0.4700 hc        1 MOL      0.081453
    163 N14        -4.0720   -3.3210    2.7970 n         1 MOL     -0.045942
    164 C55        -4.6930   -2.3650    3.7210 c3        1 MOL     -0.367561
    165 H73        -5.6430   -2.7670    4.0720 h1        1 MOL      0.127242
    166 H74        -4.0320   -2.2000    4.5720 h1        1 MOL      0.127242
    167 H75        -4.8660   -1.4210    3.2050 h1        1 MOL      0.127242
    168 H76        -4.4080   -3.3460    1.8520 hn        1 MOL      0.140203
    169 Ca1         2.2500   -2.6350   -2.0340 Ca        1 MOL      1.762149
    170 O24         3.2650   -4.8650   -2.7750 oh        1 MOL     -0.844093
    171 H77         3.8920   -4.9970   -3.4830 ho        1 MOL      0.406943
    172 H78         2.9340   -5.7430   -2.5820 ho        1 MOL      0.406943
    173 O25         4.2830   -2.2740   -3.7620 oh        1 MOL     -0.844093
    174 H79         4.2050   -1.7160   -4.5420 ho        1 MOL      0.406943
    175 H80         5.2140   -2.4280   -3.6630 ho        1 MOL      0.406943
    176 O26         1.4360   -2.7610   -4.5150 oh        1 MOL     -0.844093
    177 H81         0.9630   -3.4590   -4.9640 ho        1 MOL      0.406943
    178 H82         1.4840   -2.0560   -5.1640 ho        1 MOL      0.406943
@<TRIPOS>BOND
     1    1    2 1   
     2    1    4 1   
     3    1    5 1   
     4    1    6 1   
     5    2    3 2   
     6    2    7 1   
     7    7    8 1   
     8    7   15 1   
     9    8    9 1   
    10    8   11 1   
    11    8   16 1   
    12    9   10 2   
    13    9   19 1   
    14   11   12 1   
    15   11   17 1   
    16   11   18 1   
    17   12   13 1   
    18   12   14 1   
    19   19   20 1   
    20   19   24 1   
    21   20   21 1   
    22   20   23 1   
    23   20   25 1   
    24   21   22 2   
    25   21   29 1   
    26   23   26 1   
    27   23   27 1   
    28   23   28 1   
    29   29   30 1   
    30   29   37 1   
    31   30   31 1   
    32   30   33 1   
    33   30   38 1   
    34   31   32 2   
    35   31   41 1   
    36   33   34 1   
    37   33   39 1   
    38   33   40 1   
    39   34   35 1   
    40   34   36 1   
    41   41   42 1   
    42   41   45 1   
    43   42   43 1   
    44   42   46 1   
    45   42   47 1   
    46   43   44 2   
    47   43   48 1   
    48   48   49 1   
    49   48   56 1   
    50   49   50 1   
    51   49   52 1   
    52   49   57 1   
    53   50   51 2   
    54   50   62 1   
    55   52   53 1   
    56   52   58 1   
    57   52   59 1   
    58   53   54 1   
    59   53   55 2   
    60   54   60 1   
    61   54   61 1   
    62   62   63 1   
    63   62   66 1   
    64   63   64 1   
    65   63   67 1   
    66   63   68 1   
    67   64   65 2   
    68   64   69 1   
    69   69   70 1   
    70   69   76 1   
    71   70   71 1   
    72   70   73 1   
    73   70   77 1   
    74   71   72 2   
    75   71   83 1   
    76   73   74 1   
    77   73   75 1   
    78   73   78 1   
    79   74   80 1   
    80   74   81 1   
    81   74   82 1   
    82   75   79 1   
    83   83   84 1   
    84   83   91 1   
    85   84   85 1   
    86   84   87 1   
    87   84   92 1   
    88   85   86 2   
    89   85  102 1   
    90   87   88 1   
    91   87   89 1   
    92   87   93 1   
    93   88   90 1   
    94   88   94 1   
    95   88   95 1   
    96   89   96 1   
    97   89   97 1   
    98   89   98 1   
    99   90   99 1   
   100   90  100 1   
   101   90  101 1   
   102  102  103 1   
   103  102  110 1   
   104  103  104 1   
   105  103  106 1   
   106  103  111 1   
   107  104  105 2   
   108  104  114 1   
   109  106  107 1   
   110  106  112 1   
   111  106  113 1   
   112  107  108 1   
   113  107  109 1   
   114  114  115 1   
   115  114  125 1   
   116  115  116 1   
   117  115  118 1   
   118  115  126 1   
   119  116  117 2   
   120  116  134 1   
   121  118  119 1   
   122  118  127 1   
   123  118  128 1   
   124  119  120 ar  
   125  119  121 ar  
   126  120  122 ar  
   127  120  129 1   
   128  121  123 ar  
   129  121  130 1   
   130  122  124 ar  
   131  122  131 1   
   132  123  124 ar  
   133  123  132 1   
   134  124  133 1   
   135  134  135 1   
   136  134  140 1   
   137  135  136 1   
   138  135  138 1   
   139  135  141 1   
   140  136  137 2   
   141  136  148 1   
   142  138  139 1   
   143  138  142 1   
   144  138  143 1   
   145  139  140 1   
   146  139  144 1   
   147  139  145 1   
   148  140  146 1   
   149  140  147 1   
   150  148  149 1   
   151  148  157 1   
   152  149  150 1   
   153  149  152 1   
   154  149  158 1   
   155  150  151 2   
   156  150  163 1   
   157  152  153 1   
   158  152  159 1   
   159  152  160 1   
   160  153  154 1   
   161  153  161 1   
   162  153  162 1   
   163  154  155 1   
   164  154  156 1   
   165  163  164 1   
   166  163  168 1   
   167  164  165 1   
   168  164  166 1   
   169  164  167 1   
   170  170  171 1   
   171  170  172 1   
   172  173  174 1   
   173  173  175 1   
   174  176  177 1   
   175  176  178 1   
@<TRIPOS>SUBSTRUCTURE
     1 MOL         1 TEMP              0 ****  ****    0 ROOT
