@<TRIPOS>MOLECULE
MOL
  182   178     1     0     0
SMALL
resp


@<TRIPOS>ATOM
      1 C1         -1.8820   -5.2060    5.6250 c3        1 MOL     -0.431696
      2 C2         -1.7800   -4.6420    4.2150 c         1 MOL      0.742481
      3 O1         -2.6140   -4.8790    3.3610 o         1 MOL     -0.569651
      4 H1         -0.9000   -5.1830    6.0970 hc        1 MOL      0.113809
      5 H2         -2.5790   -4.6040    6.2090 hc        1 MOL      0.113809
      6 H3         -2.2390   -6.2360    5.5810 hc        1 MOL      0.113809
      7 N1         -0.7350   -3.8060    4.0300 n         1 MOL     -0.595082
      8 C3         -0.4590   -3.1360    2.7800 c3        1 MOL     -0.027137
      9 C4         -0.4920   -4.0440    1.5720 c         1 MOL      0.523557
     10 O2          0.2500   -5.0110    1.4770 o         1 MOL     -0.477246
     11 C5          0.9550   -2.6040    2.9630 c3        1 MOL      0.083236
     12 C6          1.3880   -1.7210    1.7710 c         1 MOL      0.521804
     13 O3          2.5490   -1.2310    1.7830 o         1 MOL     -0.720094
     14 O4          0.5760   -1.5390    0.8030 o         1 MOL     -0.720094
     15 H4         -0.0350   -3.8410    4.7610 hn        1 MOL      0.309234
     16 H5         -1.1970   -2.3480    2.6320 h1        1 MOL      0.099114
     17 H6          1.6980   -3.3940    3.0890 hc        1 MOL      0.027152
     18 H7          0.9750   -2.1000    3.9390 hc        1 MOL      0.027152
     19 N2         -1.2940   -3.6870    0.5250 n         1 MOL     -0.222686
     20 C7         -1.5920   -4.4550   -0.6670 c3        1 MOL     -0.194771
     21 C8         -0.3790   -4.9510   -1.3800 c         1 MOL      0.493866
     22 O5         -0.3340   -6.1330   -1.7920 o         1 MOL     -0.546871
     23 C9         -2.5850   -3.7190   -1.5350 c3        1 MOL      0.024201
     24 C10        -3.1240   -4.6360   -2.6650 c3        1 MOL      0.206388
     25 C11        -4.4570   -4.1840   -3.3940 c3        1 MOL      0.041086
     26 C12        -5.5800   -3.7980   -2.4320 c3        1 MOL      0.217172
     27 N3         -6.9540   -3.7630   -3.1050 n4        1 MOL     -0.513995
     28 H8         -1.9020   -2.9050    0.7460 hn        1 MOL      0.176373
     29 H9         -2.0200   -5.3550   -0.2140 h1        1 MOL      0.154182
     30 H10        -1.9980   -2.9520   -2.0340 hc        1 MOL     -0.017888
     31 H11        -3.4670   -3.4130   -0.9670 hc        1 MOL     -0.017888
     32 H12        -3.2860   -5.6130   -2.2220 hc        1 MOL     -0.032594
     33 H13        -2.3310   -4.6530   -3.4150 hc        1 MOL     -0.032594
     34 H14        -4.7630   -5.0050   -4.0450 hc        1 MOL     -0.030331
     35 H15        -4.1600   -3.3000   -3.9590 hc        1 MOL     -0.030331
     36 H16        -5.2920   -2.8210   -2.0270 hx        1 MOL      0.011255
     37 H17        -5.5890   -4.5160   -1.6010 hx        1 MOL      0.011255
     38 H18        -7.6410   -3.7330   -2.3710 hn        1 MOL      0.331011
     39 H19        -7.0080   -2.8760   -3.5990 hn        1 MOL      0.331011
     40 H20        -7.1300   -4.5290   -3.7390 hn        1 MOL      0.331011
     41 N4          0.6330   -4.0810   -1.5460 n         1 MOL     -0.218133
     42 C13         1.8920   -4.4280   -2.2190 c3        1 MOL      0.025810
     43 C14         3.0710   -4.6500   -1.2570 c         1 MOL      0.444232
     44 O6          4.1680   -5.0130   -1.6820 o         1 MOL     -0.576836
     45 C15         2.2140   -3.2360   -3.1790 c3        1 MOL     -0.314408
     46 C16         2.1990   -1.8410   -2.4910 c         1 MOL      0.740958
     47 O7          2.7570   -1.7250   -1.3920 o         1 MOL     -0.747333
     48 O8          1.5210   -0.8990   -2.8710 o         1 MOL     -0.747333
     49 H21         0.5840   -3.1750   -1.0990 hn        1 MOL      0.181039
     50 H22         1.8390   -5.2600   -2.9110 h1        1 MOL      0.129057
     51 H23         1.5030   -3.2470   -4.0090 hc        1 MOL      0.096562
     52 H24         3.2030   -3.2970   -3.6400 hc        1 MOL      0.096562
     53 N5          2.9660   -4.3310    0.0680 n         1 MOL     -0.014665
     54 C17         3.9510   -4.4710    1.0910 c3        1 MOL     -0.161415
     55 C18         5.1470   -3.5380    0.8800 c         1 MOL      0.542301
     56 O9          6.1470   -3.9090    1.4960 o         1 MOL     -0.560272
     57 H25         2.1220   -3.8970    0.4100 hn        1 MOL     -0.043509
     58 H26         4.3550   -5.4700    1.2550 h1        1 MOL      0.102457
     59 H27         3.4250   -4.2150    2.0110 h1        1 MOL      0.102457
     60 N6          5.0860   -2.5130   -0.0220 n         1 MOL     -0.339477
     61 C19         6.2130   -1.7160   -0.5170 c3        1 MOL      0.070461
     62 C20         5.7590   -0.2760   -0.8340 c         1 MOL      0.332701
     63 O10         4.5670    0.1370   -0.6960 o         1 MOL     -0.383786
     64 C21         6.8340   -2.4170   -1.7090 c3        1 MOL      0.013037
     65 C22         7.6090   -3.7500   -1.6000 c         1 MOL      0.560552
     66 N7          7.0360   -4.8000   -1.2530 n         1 MOL     -0.679605
     67 O11         8.8460   -3.7870   -1.7220 o         1 MOL     -0.607684
     68 H28         4.1680   -2.3610   -0.4160 hn        1 MOL      0.323413
     69 H29         6.9790   -1.6840    0.2460 h1        1 MOL      0.060647
     70 H30         7.5250   -1.7540   -2.2320 hc        1 MOL     -0.019858
     71 H31         6.0140   -2.5190   -2.4140 hc        1 MOL     -0.019858
     72 H32         6.0400   -4.9110   -1.1330 hn        1 MOL      0.357273
     73 H33         7.7170   -5.5080   -1.0160 hn        1 MOL      0.357273
     74 N8          6.7140    0.6400   -1.1700 n         1 MOL     -0.275474
     75 C23         6.4880    2.0310   -1.5160 c3        1 MOL     -0.198660
     76 C24         5.8730    2.7430   -0.3510 c         1 MOL      0.617809
     77 O12         5.9850    2.2400    0.7640 o         1 MOL     -0.513544
     78 H34         7.6610    0.2680   -1.1530 hn        1 MOL      0.289424
     79 H35         5.7290    2.1370   -2.2950 h1        1 MOL      0.103588
     80 H36         7.4540    2.5140   -1.6480 h1        1 MOL      0.103588
     81 N9          5.1110    3.8540   -0.4970 n         1 MOL     -0.536461
     82 C25         4.4090    4.4680    0.6840 c3        1 MOL      0.049366
     83 C26         3.3470    3.5490    1.2960 c         1 MOL      0.720019
     84 O13         2.9990    2.5060    0.7280 o         1 MOL     -0.693455
     85 C27         3.9000    5.8460    0.2730 c3        1 MOL     -0.300128
     86 C28         3.0410    5.9790   -1.0260 ca        1 MOL      0.016811
     87 C29         3.5760    6.3090   -2.2800 ca        1 MOL     -0.075113
     88 C30         1.6470    5.8730   -0.8990 ca        1 MOL     -0.075113
     89 C31         2.7510    6.3470   -3.4010 ca        1 MOL     -0.337937
     90 C32         0.7910    6.0760   -2.0010 ca        1 MOL     -0.337937
     91 C33         1.3470    6.2230   -3.2840 ca        1 MOL      0.432317
     92 O14         0.4710    6.4340   -4.3320 oh        1 MOL     -0.552387
     93 H37         4.9140    4.2430   -1.4030 hn        1 MOL      0.290895
     94 H38         5.0640    4.5590    1.5490 h1        1 MOL      0.074783
     95 H39         4.7960    6.4110    0.0400 hc        1 MOL      0.117632
     96 H40         3.5070    6.3890    1.1240 hc        1 MOL      0.117632
     97 H41         4.6500    6.3770   -2.3900 ha        1 MOL      0.111887
     98 H42         1.2220    5.7710    0.0880 ha        1 MOL      0.111887
     99 H43         3.0990    6.5910   -4.3990 ha        1 MOL      0.186091
    100 H44        -0.2750    6.1700   -1.8630 ha        1 MOL      0.186091
    101 H45        -0.4480    6.3500   -4.0840 ho        1 MOL      0.414478
    102 N10         2.6840    4.0470    2.3700 n         1 MOL     -0.552911
    103 C34         1.7870    3.1530    3.1820 c3        1 MOL      0.049050
    104 C35         0.5260    2.6380    2.4390 c         1 MOL      0.370420
    105 O15         0.5410    1.6880    1.7000 o         1 MOL     -0.424043
    106 C36         2.5420    2.0540    3.9200 c3        1 MOL      0.138267
    107 C37         1.6060    1.3400    4.9460 c3        1 MOL      0.183735
    108 C38         3.6760    2.6080    4.7860 c3        1 MOL     -0.343445
    109 C39         2.1040   -0.0710    5.4070 c3        1 MOL     -0.283566
    110 H46         3.1650    4.8180    2.8030 hn        1 MOL      0.320767
    111 H47         1.4680    3.7690    4.0240 h1        1 MOL      0.044466
    112 H48         2.8960    1.3270    3.1930 hc        1 MOL      0.106026
    113 H49         0.5850    1.1920    4.5780 hc        1 MOL     -0.044933
    114 H50         1.4710    2.0080    5.7940 hc        1 MOL     -0.044933
    115 H51         4.1360    1.7920    5.3510 hc        1 MOL      0.081149
    116 H52         4.4310    3.1030    4.1820 hc        1 MOL      0.081149
    117 H53         3.3090    3.3990    5.4380 hc        1 MOL      0.081149
    118 H54         2.8350    0.0850    6.2050 hc        1 MOL      0.073049
    119 H55         1.2520   -0.6780    5.7200 hc        1 MOL      0.073049
    120 H56         2.5540   -0.5460    4.5310 hc        1 MOL      0.073049
    121 N11        -0.5640    3.2940    2.7590 n         1 MOL     -0.422258
    122 C40        -1.9130    2.7030    2.6530 c3        1 MOL     -0.212900
    123 C41        -2.7720    2.7710    1.4030 c         1 MOL      0.757135
    124 O16        -3.6540    1.9530    1.2310 o         1 MOL     -0.595815
    125 C42        -2.6600    3.0880    3.8270 c3        1 MOL      0.119873
    126 O17        -2.7170    4.4280    3.8600 oh        1 MOL     -0.607908
    127 H57        -0.5170    4.1530    3.2840 hn        1 MOL      0.317190
    128 H58        -1.7300    1.6450    2.8450 h1        1 MOL      0.140090
    129 H59        -2.2210    2.7060    4.7520 h1        1 MOL      0.064762
    130 H60        -3.6560    2.6530    3.7620 h1        1 MOL      0.064762
    131 H61        -3.3750    4.6640    4.5220 ho        1 MOL      0.416576
    132 N12        -2.5610    3.7240    0.5060 n         1 MOL     -0.522789
    133 C43        -3.2990    3.8700   -0.7290 c3        1 MOL      0.244162
    134 C44        -2.6210    3.0600   -1.9120 c         1 MOL      0.594993
    135 O18        -1.5810    3.5310   -2.3660 o         1 MOL     -0.603826
    136 C45        -3.3020    5.3940   -1.0490 c3        1 MOL     -0.167725
    137 H62        -2.0640    4.5760    0.7230 hn        1 MOL      0.327993
    138 H63        -4.3270    3.5260   -0.6280 h1        1 MOL     -0.017695
    139 H64        -3.6930    5.8890   -0.1630 hc        1 MOL      0.045751
    140 H65        -2.2800    5.7580   -1.1200 hc        1 MOL      0.045751
    141 H66        -3.9310    5.6070   -1.9100 hc        1 MOL      0.045751
    142 N13        -3.0950    1.8900   -2.4280 n         1 MOL     -0.550475
    143 C46        -4.2990    1.1810   -2.0000 c3        1 MOL      0.139181
    144 C47        -5.5950    1.9840   -2.0590 c         1 MOL      0.482950
    145 O19        -5.7310    2.8420   -2.9600 o         1 MOL     -0.561793
    146 C48        -4.3220   -0.1890   -2.7510 c3        1 MOL     -0.085703
    147 H67        -2.5370    1.5790   -3.2100 hn        1 MOL      0.350833
    148 H68        -4.1590    0.9650   -0.9430 h1        1 MOL      0.029634
    149 H69        -5.2230   -0.7220   -2.4390 hc        1 MOL      0.030158
    150 H70        -4.4400   -0.0100   -3.8190 hc        1 MOL      0.030158
    151 H71        -3.4320   -0.7830   -2.5760 hc        1 MOL      0.030158
    152 N14        -6.6360    1.7530   -1.2690 n         1 MOL     -0.353278
    153 C49        -6.7320    0.6710   -0.2030 c3        1 MOL     -0.239658
    154 C50        -7.1190    1.2280    1.1320 c         1 MOL      0.516760
    155 O20        -7.0300    0.5740    2.1890 o         1 MOL     -0.511372
    156 C51        -7.7970   -0.2750   -0.7460 c3        1 MOL      0.032422
    157 C52        -7.8570   -1.5950    0.0140 c3        1 MOL      0.020626
    158 C53        -8.7970   -2.5700   -0.4930 c         1 MOL      0.680423
    159 O21       -10.0280   -2.2400   -0.4770 o         1 MOL     -0.685076
    160 O22        -8.4220   -3.6650   -0.9090 o         1 MOL     -0.685076
    161 H72        -7.4460    2.2840   -1.5430 hn        1 MOL      0.290826
    162 H73        -5.7850    0.1540   -0.0490 h1        1 MOL      0.219513
    163 H74        -7.5490   -0.5620   -1.7610 hc        1 MOL     -0.000800
    164 H75        -8.7730    0.1820   -0.8650 hc        1 MOL     -0.000800
    165 H76        -7.9550   -1.4080    1.0830 hc        1 MOL     -0.017565
    166 H77        -6.8670   -2.0450   -0.0380 hc        1 MOL     -0.017565
    167 N15        -7.3690    2.5420    1.3030 n         1 MOL     -0.261529
    168 C54        -7.6320    3.2460    2.5930 c3        1 MOL     -0.065285
    169 H78        -7.7030    2.5140    3.3980 h1        1 MOL      0.069983
    170 H79        -6.8170    3.9370    2.8040 h1        1 MOL      0.069983
    171 H80        -8.5690    3.7980    2.5210 h1        1 MOL      0.069983
    172 H81        -7.2830    3.1280    0.4860 hn        1 MOL      0.211222
    173 Ca1         1.9090    0.4380   -0.4820 Ca        1 MOL      1.773669
    174 O23         0.6950    2.9010   -0.9170 oh        1 MOL     -0.790395
    175 H82        -0.1690    2.9880   -1.3280 ho        1 MOL      0.394930
    176 H83         1.2170    3.6050   -1.3020 ho        1 MOL      0.394930
    177 O24         2.7740    1.6450   -2.7740 oh        1 MOL     -0.790395
    178 H84         2.5670    2.2330   -3.5070 ho        1 MOL      0.394930
    179 H85         3.5010    1.1120   -3.1060 ho        1 MOL      0.394930
    180 O25        -0.6900    0.0560   -1.2490 oh        1 MOL     -0.790395
    181 H86        -1.0760   -0.5380   -0.6110 ho        1 MOL      0.394930
    182 H87        -1.0690   -0.2130   -2.0880 ho        1 MOL      0.394930
@<TRIPOS>BOND
     1    1    2 1   
     2    1    4 1   
     3    1    5 1   
     4    1    6 1   
     5    2    3 2   
     6    2    7 1   
     7    7    8 1   
     8    7   15 1   
     9    8    9 1   
    10    8   11 1   
    11    8   16 1   
    12    9   10 2   
    13    9   19 1   
    14   11   12 1   
    15   11   17 1   
    16   11   18 1   
    17   12   13 1   
    18   12   14 1   
    19   19   20 1   
    20   19   28 1   
    21   20   21 1   
    22   20   23 1   
    23   20   29 1   
    24   21   22 2   
    25   21   41 1   
    26   23   24 1   
    27   23   30 1   
    28   23   31 1   
    29   24   25 1   
    30   24   32 1   
    31   24   33 1   
    32   25   26 1   
    33   25   34 1   
    34   25   35 1   
    35   26   27 1   
    36   26   36 1   
    37   26   37 1   
    38   27   38 1   
    39   27   39 1   
    40   27   40 1   
    41   41   42 1   
    42   41   49 1   
    43   42   43 1   
    44   42   45 1   
    45   42   50 1   
    46   43   44 2   
    47   43   53 1   
    48   45   46 1   
    49   45   51 1   
    50   45   52 1   
    51   46   47 1   
    52   46   48 1   
    53   53   54 1   
    54   53   57 1   
    55   54   55 1   
    56   54   58 1   
    57   54   59 1   
    58   55   56 2   
    59   55   60 1   
    60   60   61 1   
    61   60   68 1   
    62   61   62 1   
    63   61   64 1   
    64   61   69 1   
    65   62   63 2   
    66   62   74 1   
    67   64   65 1   
    68   64   70 1   
    69   64   71 1   
    70   65   66 1   
    71   65   67 2   
    72   66   72 1   
    73   66   73 1   
    74   74   75 1   
    75   74   78 1   
    76   75   76 1   
    77   75   79 1   
    78   75   80 1   
    79   76   77 2   
    80   76   81 1   
    81   81   82 1   
    82   81   93 1   
    83   82   83 1   
    84   82   85 1   
    85   82   94 1   
    86   83   84 2   
    87   83  102 1   
    88   85   86 1   
    89   85   95 1   
    90   85   96 1   
    91   86   87 ar  
    92   86   88 ar  
    93   87   89 ar  
    94   87   97 1   
    95   88   90 ar  
    96   88   98 1   
    97   89   91 ar  
    98   89   99 1   
    99   90   91 ar  
   100   90  100 1   
   101   91   92 1   
   102   92  101 1   
   103  102  103 1   
   104  102  110 1   
   105  103  104 1   
   106  103  106 1   
   107  103  111 1   
   108  104  105 2   
   109  104  121 1   
   110  106  107 1   
   111  106  108 1   
   112  106  112 1   
   113  107  109 1   
   114  107  113 1   
   115  107  114 1   
   116  108  115 1   
   117  108  116 1   
   118  108  117 1   
   119  109  118 1   
   120  109  119 1   
   121  109  120 1   
   122  121  122 1   
   123  121  127 1   
   124  122  123 1   
   125  122  125 1   
   126  122  128 1   
   127  123  124 2   
   128  123  132 1   
   129  125  126 1   
   130  125  129 1   
   131  125  130 1   
   132  126  131 1   
   133  132  133 1   
   134  132  137 1   
   135  133  134 1   
   136  133  136 1   
   137  133  138 1   
   138  134  135 2   
   139  134  142 1   
   140  136  139 1   
   141  136  140 1   
   142  136  141 1   
   143  142  143 1   
   144  142  147 1   
   145  143  144 1   
   146  143  146 1   
   147  143  148 1   
   148  144  145 2   
   149  144  152 1   
   150  146  149 1   
   151  146  150 1   
   152  146  151 1   
   153  152  153 1   
   154  152  161 1   
   155  153  154 1   
   156  153  156 1   
   157  153  162 1   
   158  154  155 2   
   159  154  167 1   
   160  156  157 1   
   161  156  163 1   
   162  156  164 1   
   163  157  158 1   
   164  157  165 1   
   165  157  166 1   
   166  158  159 1   
   167  158  160 1   
   168  167  168 1   
   169  167  172 1   
   170  168  169 1   
   171  168  170 1   
   172  168  171 1   
   173  174  175 1   
   174  174  176 1   
   175  177  178 1   
   176  177  179 1   
   177  180  181 1   
   178  180  182 1   
@<TRIPOS>SUBSTRUCTURE
     1 MOL         1 TEMP              0 ****  ****    0 ROOT
