@<TRIPOS>MOLECULE
MOL
  181   177     1     0     0
SMALL
resp


@<TRIPOS>ATOM
      1 C1          2.1730   -2.7900    3.9690 c3        1 MOL     -0.356909
      2 C2          3.6110   -2.5720    3.5390 c         1 MOL      0.717439
      3 O1          3.9370   -1.6010    2.9190 o         1 MOL     -0.574272
      4 H1          2.1340   -3.5870    4.7120 hc        1 MOL      0.089349
      5 H2          1.7800   -1.8700    4.4030 hc        1 MOL      0.089349
      6 H3          1.5730   -3.0700    3.1040 hc        1 MOL      0.089349
      7 N1          4.4370   -3.5920    3.6050 n         1 MOL     -0.687035
      8 C3          5.8230   -3.5960    3.0750 c3        1 MOL      0.202327
      9 C4          5.7920   -3.6430    1.5770 c         1 MOL      0.438578
     10 O2          5.0050   -4.2810    0.9080 o         1 MOL     -0.458616
     11 C5          6.7460   -4.7260    3.6420 c3        1 MOL     -0.172451
     12 C6          8.2600   -4.5190    3.2660 c         1 MOL      0.697413
     13 O3          9.0090   -5.5240    3.3810 o         1 MOL     -0.700043
     14 O4          8.6180   -3.3440    3.0830 o         1 MOL     -0.700043
     15 H4          4.0650   -4.5040    3.8310 hn        1 MOL      0.345353
     16 H5          6.3200   -2.6690    3.3500 h1        1 MOL      0.061245
     17 H6          6.2850   -5.6550    3.3130 hc        1 MOL      0.003000
     18 H7          6.6680   -4.7360    4.7340 hc        1 MOL      0.003000
     19 N2          6.7650   -2.9350    1.0250 n         1 MOL     -0.381105
     20 C7          6.9780   -2.5680   -0.3990 c3        1 MOL      0.079020
     21 C8          6.1220   -1.4090   -0.8960 c         1 MOL      0.639559
     22 O5          6.0220   -0.3080   -0.3200 o         1 MOL     -0.581495
     23 C9          8.5350   -2.2640   -0.4580 c3        1 MOL     -0.281018
     24 H8          7.4020   -2.5720    1.7120 hn        1 MOL      0.256736
     25 H9          6.7880   -3.4020   -1.0680 h1        1 MOL      0.048501
     26 H10         8.8110   -1.9230   -1.4550 hc        1 MOL      0.081864
     27 H11         8.9420   -1.5240    0.2230 hc        1 MOL      0.081864
     28 H12         9.1380   -3.1720   -0.3580 hc        1 MOL      0.081864
     29 N3          5.3320   -1.7840   -1.9350 n         1 MOL     -0.525317
     30 C10         4.5100   -0.9340   -2.7810 c3        1 MOL      0.039571
     31 C11         5.3230    0.1090   -3.5820 c         1 MOL      0.500422
     32 O6          6.3400   -0.1440   -4.1500 o         1 MOL     -0.501403
     33 C12         3.6290   -1.6710   -3.7580 c3        1 MOL     -0.200522
     34 C13         3.0550   -2.9650   -3.2580 c         1 MOL      0.699744
     35 O7          3.7300   -4.0090   -3.2160 o         1 MOL     -0.703948
     36 O8          1.8580   -2.9350   -2.8310 o         1 MOL     -0.703948
     37 H13         5.3400   -2.7210   -2.3180 hn        1 MOL      0.328324
     38 H14         3.8490   -0.4620   -2.0520 h1        1 MOL      0.126541
     39 H15         4.2000   -1.8750   -4.6610 hc        1 MOL      0.022689
     40 H16         2.8200   -0.9590   -3.9640 hc        1 MOL      0.022689
     41 N4          4.8300    1.3930   -3.5780 n         1 MOL     -0.202140
     42 C14         5.3330    2.3870   -4.4350 c3        1 MOL     -0.186387
     43 C15         5.0970    3.7470   -3.7450 c         1 MOL      0.623431
     44 O9          6.0400    4.5000   -3.7570 o         1 MOL     -0.500713
     45 H17         3.9740    1.6760   -3.1140 hn        1 MOL      0.119568
     46 H18         4.7130    2.2830   -5.3190 h1        1 MOL      0.090382
     47 H19         6.3980    2.2240   -4.5860 h1        1 MOL      0.090382
     48 N5          3.8520    4.1200   -3.3020 n         1 MOL     -0.632349
     49 C16         3.5120    5.3750   -2.6700 c3        1 MOL      0.071095
     50 C17         2.8140    5.1180   -1.3310 c         1 MOL      0.726471
     51 O10         2.3010    4.0290   -1.0770 o         1 MOL     -0.527989
     52 C18         2.6720    6.2390   -3.6330 c3        1 MOL     -0.593446
     53 C19         3.5190    6.5790   -4.8100 c         1 MOL      0.844421
     54 N6          3.3420    6.1990   -6.0580 n         1 MOL     -0.825731
     55 O11         4.4470    7.3430   -4.6460 o         1 MOL     -0.586038
     56 H20         3.1200    3.4130   -3.3040 hn        1 MOL      0.377409
     57 H21         4.4520    5.8630   -2.4390 h1        1 MOL      0.106168
     58 H22         2.4210    7.1830   -3.1560 hc        1 MOL      0.156624
     59 H23         1.7440    5.7310   -3.9170 hc        1 MOL      0.156624
     60 H24         2.6920    5.4410   -6.2090 hn        1 MOL      0.367047
     61 H25         4.1990    6.3690   -6.5690 hn        1 MOL      0.367047
     62 N7          2.8390    6.1460   -0.4710 n         1 MOL     -0.579920
     63 C20         2.5110    6.0880    0.9160 c3        1 MOL      0.041311
     64 C21         1.2180    6.7970    1.3010 c         1 MOL      0.484281
     65 O12         0.5070    7.4290    0.5060 o         1 MOL     -0.483680
     66 H26         3.0600    7.0940   -0.7650 hn        1 MOL      0.323500
     67 H27         3.4370    6.4080    1.3930 h1        1 MOL      0.082260
     68 H28         2.4500    5.0500    1.2520 h1        1 MOL      0.082260
     69 N8          0.9700    6.8160    2.5980 n         1 MOL     -0.457410
     70 C22        -0.3450    7.1460    3.2000 c3        1 MOL     -0.109487
     71 C23        -1.4100    6.0510    3.1710 c         1 MOL      0.574412
     72 O13        -2.5740    6.4630    3.1180 o         1 MOL     -0.561890
     73 C24        -0.2990    7.8320    4.5470 c3        1 MOL      0.514716
     74 C25         0.1860    6.9340    5.7500 c3        1 MOL     -0.457207
     75 O14         0.5920    8.9630    4.5910 oh        1 MOL     -0.655715
     76 H29         1.6810    6.4810    3.2360 hn        1 MOL      0.243696
     77 H30        -0.7690    7.9500    2.5920 h1        1 MOL      0.095853
     78 H31        -1.3160    8.1260    4.7790 h1        1 MOL      0.018182
     79 H32         1.4450    8.7210    4.2100 ho        1 MOL      0.385474
     80 H33         1.0770    6.3430    5.5430 hc        1 MOL      0.107810
     81 H34         0.1350    7.4790    6.6990 hc        1 MOL      0.107810
     82 H35        -0.5540    6.1800    6.0040 hc        1 MOL      0.107810
     83 N9         -1.0370    4.7680    3.0120 n         1 MOL     -0.286388
     84 C26        -2.1170    3.7110    2.7530 c3        1 MOL     -0.072149
     85 C27        -1.4950    2.4290    2.0770 c         1 MOL      0.501180
     86 O15        -0.3090    2.4520    1.8270 o         1 MOL     -0.476926
     87 C28        -2.8380    3.2420    4.1220 c3        1 MOL     -0.002738
     88 C29        -1.8900    2.8740    5.3730 c3        1 MOL     -0.109514
     89 C30        -3.7520    4.3090    4.6710 c3        1 MOL     -0.239964
     90 C31        -0.8970    1.6610    5.2470 c3        1 MOL     -0.097561
     91 H36        -0.0580    4.5450    3.0270 hn        1 MOL      0.244858
     92 H37        -2.8830    4.1150    2.0840 h1        1 MOL      0.113072
     93 H38        -3.5060    2.3890    3.9980 hc        1 MOL      0.077323
     94 H39        -2.5510    2.7060    6.2220 hc        1 MOL      0.038579
     95 H40        -1.3460    3.7790    5.6320 hc        1 MOL      0.038579
     96 H41        -3.2440    5.1110    5.2000 hc        1 MOL      0.061974
     97 H42        -4.3350    4.7490    3.8580 hc        1 MOL      0.061974
     98 H43        -4.4420    3.7910    5.3370 hc        1 MOL      0.061974
     99 H44        -0.2280    1.7070    4.3880 hc        1 MOL      0.038082
    100 H45        -0.2800    1.6730    6.1410 hc        1 MOL      0.038082
    101 H46        -1.4360    0.7020    5.2910 hc        1 MOL      0.038082
    102 N10        -2.3560    1.4780    1.7070 n         1 MOL     -0.609816
    103 C32        -1.8980    0.3120    0.8830 c3        1 MOL      0.518494
    104 C33        -2.8830   -0.0910   -0.2090 c         1 MOL      0.340346
    105 O16        -3.0800   -1.2780   -0.5210 o         1 MOL     -0.395421
    106 C34        -1.4320   -0.8560    1.7980 c3        1 MOL     -0.394064
    107 C35        -0.6540   -1.9530    1.0300 c         1 MOL      0.744095
    108 O17        -0.7470   -3.1760    1.2230 o         1 MOL     -0.728911
    109 O18         0.1030   -1.5080    0.1190 o         1 MOL     -0.728911
    110 H47        -3.3060    1.6030    1.9960 hn        1 MOL      0.273216
    111 H48        -1.1470    0.7380    0.2180 h1        1 MOL      0.016062
    112 H49        -2.2870   -1.4150    2.1750 hc        1 MOL      0.105471
    113 H50        -0.8480   -0.5680    2.6780 hc        1 MOL      0.105471
    114 N11        -3.5900    0.9360   -0.6700 n         1 MOL     -0.342726
    115 C36        -4.7670    0.8210   -1.4900 c3        1 MOL      0.113438
    116 C37        -5.8560   -0.1080   -1.0000 c         1 MOL      0.274222
    117 O19        -6.0810   -0.0810    0.2410 o         1 MOL     -0.489842
    118 C38        -5.4100    2.2240   -1.5910 c3        1 MOL     -0.361943
    119 C39        -6.6910    2.2610   -2.3790 ca        1 MOL      0.259391
    120 C40        -6.6830    2.1260   -3.7490 ca        1 MOL     -0.261371
    121 C41        -7.9170    2.5690   -1.7500 ca        1 MOL     -0.261371
    122 C42        -7.8770    2.1910   -4.5200 ca        1 MOL     -0.026654
    123 C43        -9.1180    2.6970   -2.4970 ca        1 MOL     -0.026654
    124 C44        -9.1050    2.5410   -3.8970 ca        1 MOL     -0.192786
    125 H51        -3.3100    1.8440   -0.3370 hn        1 MOL      0.251748
    126 H52        -4.4550    0.5150   -2.4940 h1        1 MOL      0.041138
    127 H53        -4.6030    2.8640   -1.9350 hc        1 MOL      0.127666
    128 H54        -5.6690    2.6230   -0.6080 hc        1 MOL      0.127666
    129 H55        -5.7190    1.9760   -4.2250 ha        1 MOL      0.142970
    130 H56        -7.9790    2.7010   -0.6770 ha        1 MOL      0.142970
    131 H57        -7.8520    2.1070   -5.5930 ha        1 MOL      0.092429
    132 H58       -10.0380    3.0390   -2.0680 ha        1 MOL      0.092429
    133 H59       -10.0130    2.5620   -4.4870 ha        1 MOL      0.124294
    134 N12        -6.3850   -1.1210   -1.7690 n         1 MOL      0.007841
    135 C45        -7.2920   -1.9970   -1.1590 c3        1 MOL      0.223111
    136 C46        -6.8170   -3.0090   -0.1270 c         1 MOL      0.135311
    137 O20        -7.6600   -3.4130    0.7200 o         1 MOL     -0.484868
    138 C47        -8.0980   -2.6640   -2.3350 c3        1 MOL     -0.233924
    139 C48        -7.2180   -2.4820   -3.5550 c3        1 MOL      0.035569
    140 C49        -6.3130   -1.3290   -3.2350 c3        1 MOL     -0.047302
    141 H60        -8.1560   -1.5240   -0.7020 h1        1 MOL      0.024328
    142 H61        -8.1320   -3.7370   -2.1520 hc        1 MOL      0.087642
    143 H62        -9.0350   -2.1440   -2.5220 hc        1 MOL      0.087642
    144 H63        -6.6780   -3.4130   -3.7220 hc        1 MOL      0.012872
    145 H64        -7.8660   -2.2490   -4.3990 hc        1 MOL      0.012872
    146 H65        -5.3160   -1.4900   -3.6400 h1        1 MOL      0.028002
    147 H66        -6.6970   -0.4760   -3.7790 h1        1 MOL      0.028002
    148 N13        -5.5320   -3.4260   -0.1420 n         1 MOL      0.078994
    149 C50        -5.1300   -4.6190    0.5660 c3        1 MOL     -0.320191
    150 C51        -5.1990   -4.4380    2.1090 c         1 MOL      0.543934
    151 O21        -5.4120   -5.4660    2.8130 o         1 MOL     -0.570988
    152 C52        -3.7080   -5.0080    0.0720 c3        1 MOL      0.080167
    153 C53        -3.2510   -6.4550    0.3210 c3        1 MOL     -0.012869
    154 C54        -2.1070   -6.8920   -0.6360 c         1 MOL      0.597898
    155 O22        -1.2150   -6.0460   -0.8830 o         1 MOL     -0.686496
    156 O23        -2.0410   -8.0820   -0.9620 o         1 MOL     -0.686496
    157 H67        -4.7950   -2.9160   -0.6040 hn        1 MOL      0.068281
    158 H68        -5.8740   -5.3930    0.3710 h1        1 MOL      0.159930
    159 H69        -3.0070   -4.2200    0.3530 hc        1 MOL     -0.030733
    160 H70        -3.7320   -4.8790   -1.0150 hc        1 MOL     -0.030733
    161 H71        -4.1150   -7.0910    0.1180 hc        1 MOL      0.010621
    162 H72        -2.8640   -6.5890    1.3320 hc        1 MOL      0.010621
    163 N14        -5.0210   -3.2130    2.6400 n         1 MOL     -0.199985
    164 C55        -4.9640   -2.9960    4.0850 c3        1 MOL     -0.281163
    165 H73        -4.3710   -3.7850    4.5470 h1        1 MOL      0.109614
    166 H74        -4.5040   -2.0290    4.2890 h1        1 MOL      0.109614
    167 H75        -5.9740   -3.0130    4.4960 h1        1 MOL      0.109614
    168 H76        -4.7300   -2.5070    1.9870 hn        1 MOL      0.230275
    169 Ca1         0.4370   -4.1570   -0.9840 Ca        1 MOL      1.794641
    170 O24         1.1500   -5.6670    1.2140 oh        1 MOL     -0.910259
    171 H77         0.3650   -6.2120    1.2620 ho        1 MOL      0.426776
    172 H78         1.8410   -6.2080    1.5960 ho        1 MOL      0.426776
    173 O25        -1.4220   -3.1670   -2.5190 oh        1 MOL     -0.910259
    174 H79        -2.0080   -2.4290   -2.6420 ho        1 MOL      0.426776
    175 H80        -1.5570   -3.7060   -3.3000 ho        1 MOL      0.426776
    176 O26         2.7500   -3.0050   -0.0040 oh        1 MOL     -0.910259
    177 H81         2.8020   -2.0600    0.1200 ho        1 MOL      0.426776
    178 H82         3.5630   -3.3400    0.3620 ho        1 MOL      0.426776
    179 O27         1.6440   -5.8580   -2.7500 oh        1 MOL     -0.910259
    180 H83         1.7260   -6.8160   -2.8360 ho        1 MOL      0.426776
    181 H84         2.2450   -5.5110   -3.4130 ho        1 MOL      0.426776
@<TRIPOS>BOND
     1    1    2 1   
     2    1    4 1   
     3    1    5 1   
     4    1    6 1   
     5    2    3 2   
     6    2    7 1   
     7    7    8 1   
     8    7   15 1   
     9    8    9 1   
    10    8   11 1   
    11    8   16 1   
    12    9   10 2   
    13    9   19 1   
    14   11   12 1   
    15   11   17 1   
    16   11   18 1   
    17   12   13 1   
    18   12   14 1   
    19   19   20 1   
    20   19   24 1   
    21   20   21 1   
    22   20   23 1   
    23   20   25 1   
    24   21   22 2   
    25   21   29 1   
    26   23   26 1   
    27   23   27 1   
    28   23   28 1   
    29   29   30 1   
    30   29   37 1   
    31   30   31 1   
    32   30   33 1   
    33   30   38 1   
    34   31   32 2   
    35   31   41 1   
    36   33   34 1   
    37   33   39 1   
    38   33   40 1   
    39   34   35 1   
    40   34   36 1   
    41   41   42 1   
    42   41   45 1   
    43   42   43 1   
    44   42   46 1   
    45   42   47 1   
    46   43   44 2   
    47   43   48 1   
    48   48   49 1   
    49   48   56 1   
    50   49   50 1   
    51   49   52 1   
    52   49   57 1   
    53   50   51 2   
    54   50   62 1   
    55   52   53 1   
    56   52   58 1   
    57   52   59 1   
    58   53   54 1   
    59   53   55 2   
    60   54   60 1   
    61   54   61 1   
    62   62   63 1   
    63   62   66 1   
    64   63   64 1   
    65   63   67 1   
    66   63   68 1   
    67   64   65 2   
    68   64   69 1   
    69   69   70 1   
    70   69   76 1   
    71   70   71 1   
    72   70   73 1   
    73   70   77 1   
    74   71   72 2   
    75   71   83 1   
    76   73   74 1   
    77   73   75 1   
    78   73   78 1   
    79   74   80 1   
    80   74   81 1   
    81   74   82 1   
    82   75   79 1   
    83   83   84 1   
    84   83   91 1   
    85   84   85 1   
    86   84   87 1   
    87   84   92 1   
    88   85   86 2   
    89   85  102 1   
    90   87   88 1   
    91   87   89 1   
    92   87   93 1   
    93   88   90 1   
    94   88   94 1   
    95   88   95 1   
    96   89   96 1   
    97   89   97 1   
    98   89   98 1   
    99   90   99 1   
   100   90  100 1   
   101   90  101 1   
   102  102  103 1   
   103  102  110 1   
   104  103  104 1   
   105  103  106 1   
   106  103  111 1   
   107  104  105 2   
   108  104  114 1   
   109  106  107 1   
   110  106  112 1   
   111  106  113 1   
   112  107  108 1   
   113  107  109 1   
   114  114  115 1   
   115  114  125 1   
   116  115  116 1   
   117  115  118 1   
   118  115  126 1   
   119  116  117 2   
   120  116  134 1   
   121  118  119 1   
   122  118  127 1   
   123  118  128 1   
   124  119  120 ar  
   125  119  121 ar  
   126  120  122 ar  
   127  120  129 1   
   128  121  123 ar  
   129  121  130 1   
   130  122  124 ar  
   131  122  131 1   
   132  123  124 ar  
   133  123  132 1   
   134  124  133 1   
   135  134  135 1   
   136  134  140 1   
   137  135  136 1   
   138  135  138 1   
   139  135  141 1   
   140  136  137 2   
   141  136  148 1   
   142  138  139 1   
   143  138  142 1   
   144  138  143 1   
   145  139  140 1   
   146  139  144 1   
   147  139  145 1   
   148  140  146 1   
   149  140  147 1   
   150  148  149 1   
   151  148  157 1   
   152  149  150 1   
   153  149  152 1   
   154  149  158 1   
   155  150  151 2   
   156  150  163 1   
   157  152  153 1   
   158  152  159 1   
   159  152  160 1   
   160  153  154 1   
   161  153  161 1   
   162  153  162 1   
   163  154  155 1   
   164  154  156 1   
   165  163  164 1   
   166  163  168 1   
   167  164  165 1   
   168  164  166 1   
   169  164  167 1   
   170  170  171 1   
   171  170  172 1   
   172  173  174 1   
   173  173  175 1   
   174  176  177 1   
   175  176  178 1   
   176  179  180 1   
   177  179  181 1   
@<TRIPOS>SUBSTRUCTURE
     1 MOL         1 TEMP              0 ****  ****    0 ROOT
