@<TRIPOS>MOLECULE
MOL
  189   185     1     0     0
SMALL
resp


@<TRIPOS>ATOM
      1 C1          4.3250    3.4160   -3.9450 c3        1 MOL     -0.317469
      2 C2          5.1430    2.7390   -2.7550 c         1 MOL      0.714294
      3 O1          4.7160    2.7940   -1.5880 o         1 MOL     -0.604091
      4 H1          3.2580    3.2730   -3.7790 hc        1 MOL      0.070472
      5 H2          4.5480    4.4820   -3.9800 hc        1 MOL      0.070472
      6 H3          4.6100    2.9530   -4.8910 hc        1 MOL      0.070472
      7 N1          6.2640    2.1070   -3.1790 n         1 MOL     -0.676686
      8 C3          6.9600    1.0020   -2.4590 c3        1 MOL      0.203541
      9 C4          5.8580   -0.0370   -1.8820 c         1 MOL      0.166048
     10 O2          5.6450   -0.0690   -0.6560 o         1 MOL     -0.401238
     11 C5          8.0340    1.4960   -1.4460 c3        1 MOL     -0.182559
     12 C6          7.6550    2.7090   -0.6500 c         1 MOL      0.855288
     13 O3          7.1870    2.5000    0.4990 o         1 MOL     -0.769669
     14 O4          8.0170    3.8700   -1.0180 o         1 MOL     -0.769669
     15 H4          6.5390    2.4070   -4.1040 hn        1 MOL      0.341578
     16 H5          7.4920    0.4490   -3.2420 h1        1 MOL      0.034241
     17 H6          8.9440    1.8400   -1.9550 hc        1 MOL      0.027949
     18 H7          8.2900    0.7260   -0.7280 hc        1 MOL      0.027949
     19 N2          5.3280   -0.8720   -2.8320 n         1 MOL     -0.299891
     20 C7          4.5350   -2.0760   -2.7550 c3        1 MOL      0.053782
     21 C8          5.1620   -3.1890   -1.8950 c         1 MOL      0.385521
     22 O5          5.2860   -4.3030   -2.3670 o         1 MOL     -0.555563
     23 C9          3.0610   -1.7480   -2.4090 c3        1 MOL      0.334240
     24 C10         2.1700   -2.9890   -2.3670 c3        1 MOL     -0.037750
     25 C11         2.4660   -0.6770   -3.3460 c3        1 MOL     -0.272339
     26 C12         1.8800   -3.7470   -3.6580 c3        1 MOL     -0.515930
     27 H8          5.6700   -0.6760   -3.7690 hn        1 MOL      0.255943
     28 H9          4.5330   -2.4900   -3.7620 h1        1 MOL      0.023051
     29 H10         3.0560   -1.2540   -1.4340 hc        1 MOL     -0.120033
     30 H11         1.1850   -2.6020   -2.0970 hc        1 MOL      0.056348
     31 H12         2.5030   -3.5850   -1.5100 hc        1 MOL      0.056348
     32 H13         2.9180    0.2630   -3.0440 hc        1 MOL      0.046604
     33 H14         2.7970   -1.0060   -4.3330 hc        1 MOL      0.046604
     34 H15         1.3770   -0.7160   -3.2500 hc        1 MOL      0.046604
     35 H16         1.1420   -4.5060   -3.3830 hc        1 MOL      0.127691
     36 H17         1.4480   -3.0650   -4.3890 hc        1 MOL      0.127691
     37 H18         2.7830   -4.2550   -3.9820 hc        1 MOL      0.127691
     38 N3          5.5950   -2.8840   -0.6580 n         1 MOL     -0.148329
     39 C13         6.3640   -3.8250    0.1610 c3        1 MOL      0.008643
     40 C14         5.6040   -5.0780    0.6980 c         1 MOL      0.617499
     41 O6          6.2650   -6.1060    0.8390 o         1 MOL     -0.602976
     42 C15         7.1950   -3.1560    1.1970 c3        1 MOL     -0.300370
     43 C16         8.0680   -1.9140    0.7320 c         1 MOL      0.807070
     44 O7          8.7850   -2.1610   -0.2880 o         1 MOL     -0.712408
     45 O8          8.2130   -0.9820    1.5240 o         1 MOL     -0.712408
     46 H19         5.4700   -1.9300   -0.3310 hn        1 MOL      0.245017
     47 H20         7.0360   -4.2500   -0.5790 h1        1 MOL      0.052804
     48 H21         7.8550   -3.9170    1.6270 hc        1 MOL      0.081318
     49 H22         6.5230   -2.8430    1.9920 hc        1 MOL      0.081318
     50 N4          4.3700   -5.1130    1.0980 n         1 MOL     -0.596681
     51 C17         3.5860   -3.9340    1.5220 c3        1 MOL      0.373052
     52 C18         4.0420   -3.3170    2.8730 c         1 MOL      0.308629
     53 O9          5.0170   -3.8310    3.4220 o         1 MOL     -0.492856
     54 H23         4.1250   -6.0200    1.4710 hn        1 MOL      0.303881
     55 H24         2.5440   -4.2200    1.5850 h1        1 MOL     -0.057202
     56 H25         3.6680   -3.1070    0.8060 h1        1 MOL     -0.057202
     57 N5          3.5750   -2.1260    3.3100 n         1 MOL     -0.363329
     58 C19         2.3350   -1.5570    2.9060 c3        1 MOL      0.184216
     59 C20         2.3680   -1.0000    1.4160 c         1 MOL      0.065705
     60 O10         3.4450   -0.5560    0.9630 o         1 MOL     -0.385504
     61 C21         1.9380   -0.4090    3.8530 c3        1 MOL     -0.364919
     62 C22         3.0490    0.6150    4.0530 c         1 MOL      0.792825
     63 O11         3.7670    0.6000    5.0500 o         1 MOL     -0.704703
     64 O12         3.3500    1.3680    3.1160 o         1 MOL     -0.704703
     65 H26         4.1300   -1.7300    4.0510 hn        1 MOL      0.291432
     66 H27         1.5450   -2.3080    2.9710 h1        1 MOL      0.036022
     67 H28         1.5730   -0.8620    4.7790 hc        1 MOL      0.083222
     68 H29         1.0850    0.0460    3.3370 hc        1 MOL      0.083222
     69 N6          1.3060   -1.0720    0.6210 n         1 MOL     -0.100044
     70 C23        -0.1230   -1.2840    1.0900 c3        1 MOL     -0.013525
     71 C24        -0.8260   -2.5680    0.5900 c         1 MOL      0.669046
     72 O13        -0.2300   -3.2780   -0.1430 o         1 MOL     -0.559191
     73 H30         1.4750   -0.9710   -0.3660 hn        1 MOL      0.212118
     74 H31        -0.8310   -0.5240    0.7940 h1        1 MOL      0.014074
     75 H32        -0.0180   -1.5550    2.1470 h1        1 MOL      0.014074
     76 N7         -1.9360   -2.9410    1.1220 n         1 MOL     -0.453804
     77 C25        -2.5920   -4.2260    0.8690 c3        1 MOL     -0.110018
     78 C26        -3.2920   -4.3380   -0.4550 c         1 MOL      0.456377
     79 O14        -3.4080   -5.3900   -0.9820 o         1 MOL     -0.513110
     80 C27        -3.3390   -4.6430    2.1310 c3        1 MOL      0.215358
     81 C28        -4.4600   -3.8210    2.6420 c3        1 MOL     -0.594916
     82 C29        -5.5940   -3.5360    1.7050 c         1 MOL      0.521406
     83 N8         -6.4380   -4.5150    1.4680 n         1 MOL     -0.647416
     84 O15        -5.6300   -2.4570    1.1190 o         1 MOL     -0.382832
     85 H33        -2.4150   -2.1980    1.6210 hn        1 MOL      0.261348
     86 H34        -1.8020   -4.9900    0.8780 h1        1 MOL      0.151603
     87 H35        -2.6390   -4.6970    2.9680 hc        1 MOL      0.005312
     88 H36        -3.5390   -5.7130    2.0460 hc        1 MOL      0.005312
     89 H37        -4.1700   -2.8270    2.9940 hc        1 MOL      0.182403
     90 H38        -4.8540   -4.3540    3.5120 hc        1 MOL      0.182403
     91 H39        -6.2260   -5.4500    1.7890 hn        1 MOL      0.337341
     92 H40        -7.2390   -4.2980    0.8990 hn        1 MOL      0.337341
     93 N9         -3.6580   -3.1540   -1.0160 n         1 MOL     -0.201466
     94 C30        -4.0790   -2.9140   -2.3560 c3        1 MOL      0.030735
     95 C31        -5.4700   -2.2910   -2.5200 c         1 MOL      0.243015
     96 O16        -6.0270   -2.3250   -3.6630 o         1 MOL     -0.508231
     97 C32        -3.0820   -2.0370   -3.1630 c3        1 MOL      0.212529
     98 C33        -3.1050   -2.2320   -4.6230 c3        1 MOL     -0.252635
     99 C34        -1.5930   -2.1760   -2.8360 c3        1 MOL     -0.252635
    100 H41        -3.4370   -2.3190   -0.4930 hn        1 MOL      0.164669
    101 H42        -4.1690   -3.9030   -2.8010 h1        1 MOL      0.090096
    102 H43        -3.2640   -1.0070   -2.8830 hc        1 MOL     -0.012092
    103 H44        -2.6420   -3.1440   -5.0250 hc        1 MOL      0.059832
    104 H45        -4.0970   -2.1440   -5.0570 hc        1 MOL      0.059832
    105 H46        -2.6050   -1.3830   -5.0830 hc        1 MOL      0.059832
    106 H47        -1.3760   -3.2420   -2.8620 hc        1 MOL      0.059832
    107 H48        -1.0480   -1.5250   -3.5270 hc        1 MOL      0.059832
    108 H49        -1.4250   -1.7680   -1.8450 hc        1 MOL      0.059832
    109 N10        -6.1670   -1.7950   -1.4680 n         1 MOL     -0.093382
    110 C35        -7.4020   -0.9930   -1.5320 c3        1 MOL      0.129595
    111 C36        -7.2330    0.5190   -1.3510 c         1 MOL      0.442889
    112 O17        -8.2070    1.1490   -1.8060 o         1 MOL     -0.532121
    113 C37        -8.5640   -1.5840   -0.7190 c3        1 MOL     -0.108186
    114 C38        -8.9030   -3.0020   -0.9970 c         1 MOL      0.632945
    115 N11        -9.3400   -3.3090   -2.2210 n         1 MOL     -0.785777
    116 O18        -8.6910   -3.8920   -0.1570 o         1 MOL     -0.581343
    117 H50        -5.7880   -2.0040   -0.5480 hn        1 MOL      0.090391
    118 H51        -7.7570   -1.1460   -2.5500 h1        1 MOL      0.014424
    119 H52        -9.4700   -0.9920   -0.7910 hc        1 MOL      0.010300
    120 H53        -8.2540   -1.5530    0.3300 hc        1 MOL      0.010300
    121 H54        -9.3220   -2.6040   -2.9470 hn        1 MOL      0.378755
    122 H55        -9.5480   -4.2840   -2.3510 hn        1 MOL      0.378755
    123 N12        -6.1490    1.1000   -0.8330 n         1 MOL     -0.320711
    124 C39        -6.1130    2.4990   -0.3850 c3        1 MOL      0.109440
    125 C40        -4.6910    3.0430   -0.1130 c         1 MOL      0.436529
    126 O19        -3.7180    2.2950   -0.0670 o         1 MOL     -0.407767
    127 C41        -7.0010    2.8440    0.8220 c3        1 MOL      0.010128
    128 C42        -6.9940    1.7310    1.8720 ca        1 MOL     -0.267734
    129 C43        -8.0640    0.7940    1.9700 ca        1 MOL      0.123063
    130 C44        -5.7930    1.5680    2.7460 ca        1 MOL      0.123063
    131 C45        -7.9750   -0.2920    2.8250 ca        1 MOL     -0.497251
    132 C46        -5.7250    0.3440    3.4240 ca        1 MOL     -0.497251
    133 C47        -6.7550   -0.5860    3.4680 ca        1 MOL      0.556174
    134 O20        -6.5370   -1.7170    4.1360 oh        1 MOL     -0.499405
    135 H56        -5.3030    0.5790   -0.6390 hn        1 MOL      0.185275
    136 H57        -6.6300    3.0060   -1.1990 h1        1 MOL      0.046138
    137 H58        -8.0490    2.9200    0.5250 hc        1 MOL      0.025482
    138 H59        -6.8150    3.7940    1.3230 hc        1 MOL      0.025482
    139 H60        -8.9330    0.8940    1.3370 ha        1 MOL      0.087432
    140 H61        -4.9750    2.2760    2.6780 ha        1 MOL      0.087432
    141 H62        -8.7840   -1.0040    2.8730 ha        1 MOL      0.195288
    142 H63        -4.8570    0.1380    4.0450 ha        1 MOL      0.195288
    143 H64        -7.2310   -2.3460    3.9010 ho        1 MOL      0.320975
    144 N13        -4.5540    4.3830   -0.1020 n         1 MOL     -0.607904
    145 C48        -3.4460    5.2730    0.3070 c3        1 MOL      0.250121
    146 C49        -2.2250    5.2510   -0.6250 c         1 MOL      0.104645
    147 O21        -1.5930    6.2480   -0.9470 o         1 MOL     -0.471252
    148 C50        -3.1880    5.1630    1.8400 c3        1 MOL     -0.093471
    149 C51        -2.1390    6.1690    2.4210 c3        1 MOL     -0.352252
    150 C52        -2.0440    5.9390    3.9350 c         1 MOL      0.766649
    151 O22        -1.7970    4.7930    4.3490 o         1 MOL     -0.739203
    152 O23        -2.2350    6.8830    4.7700 o         1 MOL     -0.739203
    153 H65        -5.4170    4.8920   -0.2050 hn        1 MOL      0.291421
    154 H66        -3.9480    6.2000    0.0490 h1        1 MOL      0.059913
    155 H67        -3.0090    4.1090    2.0340 hc        1 MOL      0.082212
    156 H68        -4.1050    5.4730    2.3480 hc        1 MOL      0.082212
    157 H69        -2.3760    7.2100    2.2150 hc        1 MOL      0.074590
    158 H70        -1.1990    5.9520    1.9080 hc        1 MOL      0.074590
    159 N14        -1.8890    4.0850   -1.1610 n         1 MOL      0.066612
    160 C53        -0.6790    3.8650   -1.9840 c3        1 MOL      0.018431
    161 C54        -0.9730    4.3320   -3.4090 c         1 MOL      0.373338
    162 O24        -0.0780    4.7960   -4.0670 o         1 MOL     -0.513951
    163 C55        -0.3210    2.3630   -1.8540 c3        1 MOL     -0.041993
    164 C56         0.0400    1.9050   -0.4660 c3        1 MOL      0.236967
    165 C57         1.3580    2.5580    0.0450 c         1 MOL      0.553700
    166 O25         1.4560    3.7230    0.5040 o         1 MOL     -0.624203
    167 O26         2.4300    1.8890   -0.0470 o         1 MOL     -0.624203
    168 H71        -2.3650    3.2900   -0.7620 hn        1 MOL      0.097875
    169 H72         0.1230    4.5280   -1.6440 h1        1 MOL      0.138306
    170 H73         0.5270    2.0790   -2.4780 hc        1 MOL     -0.027272
    171 H74        -1.1980    1.8160   -2.1980 hc        1 MOL     -0.027272
    172 H75         0.1440    0.8260   -0.6040 hc        1 MOL     -0.070550
    173 H76        -0.7760    2.0510    0.2440 hc        1 MOL     -0.070550
    174 N15        -2.2460    4.4140   -3.7770 n         1 MOL     -0.056647
    175 C58        -2.8730    5.0270   -4.8690 c3        1 MOL     -0.424487
    176 H77        -3.9540    4.9510   -4.7560 h1        1 MOL      0.130997
    177 H78        -2.5860    6.0780   -4.9110 h1        1 MOL      0.130997
    178 H79        -2.5690    4.5290   -5.7900 h1        1 MOL      0.130997
    179 H80        -2.8760    3.8510   -3.2240 hn        1 MOL      0.134354
    180 Ca1         4.7500    1.7730    1.0170 Ca        1 MOL      1.808977
    181 O27         4.0240    4.3400    0.5520 oh        1 MOL     -0.854680
    182 H81         3.1130    4.0850    0.4060 ho        1 MOL      0.398745
    183 H82         4.2390    4.8990   -0.1940 ho        1 MOL      0.398745
    184 O28         5.5810    3.2710    3.1990 oh        1 MOL     -0.854680
    185 H83         6.3730    3.7700    3.3920 ho        1 MOL      0.398745
    186 H84         5.1560    3.1490    4.0420 ho        1 MOL      0.398745
    187 O29         6.2240    0.2800    2.5190 oh        1 MOL     -0.854680
    188 H85         6.9110   -0.2400    2.1180 ho        1 MOL      0.398745
    189 H86         6.4610    0.3210    3.4490 ho        1 MOL      0.398745
@<TRIPOS>BOND
     1    1    2 1   
     2    1    4 1   
     3    1    5 1   
     4    1    6 1   
     5    2    3 2   
     6    2    7 1   
     7    7    8 1   
     8    7   15 1   
     9    8    9 1   
    10    8   11 1   
    11    8   16 1   
    12    9   10 2   
    13    9   19 1   
    14   11   12 1   
    15   11   17 1   
    16   11   18 1   
    17   12   13 1   
    18   12   14 1   
    19   19   20 1   
    20   19   27 1   
    21   20   21 1   
    22   20   23 1   
    23   20   28 1   
    24   21   22 2   
    25   21   38 1   
    26   23   24 1   
    27   23   25 1   
    28   23   29 1   
    29   24   26 1   
    30   24   30 1   
    31   24   31 1   
    32   25   32 1   
    33   25   33 1   
    34   25   34 1   
    35   26   35 1   
    36   26   36 1   
    37   26   37 1   
    38   38   39 1   
    39   38   46 1   
    40   39   40 1   
    41   39   42 1   
    42   39   47 1   
    43   40   41 2   
    44   40   50 1   
    45   42   43 1   
    46   42   48 1   
    47   42   49 1   
    48   43   44 1   
    49   43   45 1   
    50   50   51 1   
    51   50   54 1   
    52   51   52 1   
    53   51   55 1   
    54   51   56 1   
    55   52   53 2   
    56   52   57 1   
    57   57   58 1   
    58   57   65 1   
    59   58   59 1   
    60   58   61 1   
    61   58   66 1   
    62   59   60 2   
    63   59   69 1   
    64   61   62 1   
    65   61   67 1   
    66   61   68 1   
    67   62   63 1   
    68   62   64 1   
    69   69   70 1   
    70   69   73 1   
    71   70   71 1   
    72   70   74 1   
    73   70   75 1   
    74   71   72 2   
    75   71   76 1   
    76   76   77 1   
    77   76   85 1   
    78   77   78 1   
    79   77   80 1   
    80   77   86 1   
    81   78   79 2   
    82   78   93 1   
    83   80   81 1   
    84   80   87 1   
    85   80   88 1   
    86   81   82 1   
    87   81   89 1   
    88   81   90 1   
    89   82   83 1   
    90   82   84 2   
    91   83   91 1   
    92   83   92 1   
    93   93   94 1   
    94   93  100 1   
    95   94   95 1   
    96   94   97 1   
    97   94  101 1   
    98   95   96 2   
    99   95  109 1   
   100   97   98 1   
   101   97   99 1   
   102   97  102 1   
   103   98  103 1   
   104   98  104 1   
   105   98  105 1   
   106   99  106 1   
   107   99  107 1   
   108   99  108 1   
   109  109  110 1   
   110  109  117 1   
   111  110  111 1   
   112  110  113 1   
   113  110  118 1   
   114  111  112 2   
   115  111  123 1   
   116  113  114 1   
   117  113  119 1   
   118  113  120 1   
   119  114  115 1   
   120  114  116 2   
   121  115  121 1   
   122  115  122 1   
   123  123  124 1   
   124  123  135 1   
   125  124  125 1   
   126  124  127 1   
   127  124  136 1   
   128  125  126 2   
   129  125  144 1   
   130  127  128 1   
   131  127  137 1   
   132  127  138 1   
   133  128  129 ar  
   134  128  130 ar  
   135  129  131 ar  
   136  129  139 1   
   137  130  132 ar  
   138  130  140 1   
   139  131  133 ar  
   140  131  141 1   
   141  132  133 ar  
   142  132  142 1   
   143  133  134 1   
   144  134  143 1   
   145  144  145 1   
   146  144  153 1   
   147  145  146 1   
   148  145  148 1   
   149  145  154 1   
   150  146  147 2   
   151  146  159 1   
   152  148  149 1   
   153  148  155 1   
   154  148  156 1   
   155  149  150 1   
   156  149  157 1   
   157  149  158 1   
   158  150  151 1   
   159  150  152 1   
   160  159  160 1   
   161  159  168 1   
   162  160  161 1   
   163  160  163 1   
   164  160  169 1   
   165  161  162 2   
   166  161  174 1   
   167  163  164 1   
   168  163  170 1   
   169  163  171 1   
   170  164  165 1   
   171  164  172 1   
   172  164  173 1   
   173  165  166 1   
   174  165  167 1   
   175  174  175 1   
   176  174  179 1   
   177  175  176 1   
   178  175  177 1   
   179  175  178 1   
   180  181  182 1   
   181  181  183 1   
   182  184  185 1   
   183  184  186 1   
   184  187  188 1   
   185  187  189 1   
@<TRIPOS>SUBSTRUCTURE
     1 MOL         1 TEMP              0 ****  ****    0 ROOT
