@<TRIPOS>MOLECULE
MOL
  192   187     1     0     0
SMALL
resp


@<TRIPOS>ATOM
      1 C1         -4.2910   -4.2230   -3.2060 c3        1 MOL     -0.348640
      2 C2         -5.1630   -3.4330   -2.2560 c         1 MOL      0.668621
      3 O1         -4.7020   -3.1640   -1.1840 o         1 MOL     -0.542130
      4 H1         -4.9100   -4.9140   -3.7770 hc        1 MOL      0.079930
      5 H2         -3.7860   -3.5400   -3.8890 hc        1 MOL      0.079930
      6 H3         -3.5490   -4.7840   -2.6380 hc        1 MOL      0.079930
      7 N1         -6.3130   -2.9550   -2.6150 n         1 MOL     -0.507202
      8 C3         -7.0590   -1.8190   -2.1080 c3        1 MOL      0.201087
      9 C4         -6.0850   -0.6290   -1.9340 c         1 MOL      0.591327
     10 O2         -5.6430   -0.4250   -0.8400 o         1 MOL     -0.611234
     11 C5         -8.0900   -2.1630   -0.9800 c3        1 MOL     -0.185117
     12 C6         -7.7050   -3.1670    0.1310 c         1 MOL      0.722044
     13 O3         -6.8240   -2.8260    0.9490 o         1 MOL     -0.710951
     14 O4         -8.1860   -4.2860    0.1080 o         1 MOL     -0.710951
     15 H4         -6.5790   -3.1980   -3.5620 hn        1 MOL      0.250101
     16 H5         -7.5830   -1.4930   -3.0080 h1        1 MOL     -0.017296
     17 H6         -8.9410   -2.6530   -1.4610 hc        1 MOL      0.017885
     18 H7         -8.3270   -1.1660   -0.6190 hc        1 MOL      0.017885
     19 N2         -5.8510    0.1300   -2.9690 n         1 MOL     -0.620347
     20 C7         -4.9660    1.3740   -3.0390 c3        1 MOL      0.102240
     21 C8         -5.5220    2.6170   -2.2760 c         1 MOL      0.447627
     22 O5         -5.4970    3.7240   -2.7560 o         1 MOL     -0.548844
     23 C9         -3.4790    1.0140   -2.7840 c3        1 MOL      0.341647
     24 C10        -2.6260    2.3160   -3.0350 c3        1 MOL     -0.054669
     25 C11        -2.8400   -0.1200   -3.6460 c3        1 MOL     -0.490803
     26 C12        -2.6140    2.9050   -4.4840 c3        1 MOL     -0.277525
     27 H8         -6.2610   -0.1690   -3.8460 hn        1 MOL      0.303067
     28 H9         -5.0080    1.6470   -4.0910 h1        1 MOL      0.050886
     29 H10        -3.3210    0.5820   -1.8000 hc        1 MOL     -0.150068
     30 H11        -1.6000    2.1350   -2.7210 hc        1 MOL      0.080273
     31 H12        -3.0310    3.0900   -2.3800 hc        1 MOL      0.080273
     32 H13        -1.7660   -0.0050   -3.7100 hc        1 MOL      0.113079
     33 H14        -2.9190   -1.1430   -3.2760 hc        1 MOL      0.113079
     34 H15        -3.1440   -0.0960   -4.6890 hc        1 MOL      0.113079
     35 H16        -2.0340    3.8200   -4.5900 hc        1 MOL      0.053428
     36 H17        -2.2530    2.1200   -5.1450 hc        1 MOL      0.053428
     37 H18        -3.6280    3.1740   -4.7870 hc        1 MOL      0.053428
     38 N3         -5.8350    2.5280   -0.9580 n         1 MOL     -0.298254
     39 C13        -6.3440    3.6950   -0.2240 c3        1 MOL      0.054157
     40 C14        -5.3380    4.8700   -0.1250 c         1 MOL      0.591011
     41 O6         -5.8360    6.0270   -0.1400 o         1 MOL     -0.615269
     42 C15        -6.9370    3.2410    1.1860 c3        1 MOL     -0.235366
     43 C16        -7.9880    2.1150    1.1430 c         1 MOL      0.839474
     44 O7         -8.7560    2.1120    0.1770 o         1 MOL     -0.730854
     45 O8         -8.2300    1.4630    2.2090 o         1 MOL     -0.730854
     46 H19        -5.9940    1.5990   -0.5940 hn        1 MOL      0.296232
     47 H20        -7.1730    4.0550   -0.8360 h1        1 MOL      0.057241
     48 H21        -7.4470    4.1410    1.5500 hc        1 MOL      0.042523
     49 H22        -6.1320    2.8680    1.8190 hc        1 MOL      0.042523
     50 N4         -4.0170    4.7630    0.0060 n         1 MOL     -0.476626
     51 C17        -3.2220    3.6740    0.5960 c3        1 MOL      0.107930
     52 C18        -1.9790    4.1850    1.3400 c         1 MOL      0.648424
     53 O9         -1.4450    5.2480    1.1190 o         1 MOL     -0.584071
     54 H23        -3.5810    5.6300   -0.2510 hn        1 MOL      0.274497
     55 H24        -2.9260    2.9240   -0.1350 h1        1 MOL     -0.011914
     56 H25        -3.8850    3.0950    1.2470 h1        1 MOL     -0.011914
     57 N5         -1.4510    3.4550    2.3110 n         1 MOL     -0.720174
     58 C19        -1.9410    2.1020    2.7420 c3        1 MOL      0.550909
     59 C20        -2.2990    1.1090    1.5980 c         1 MOL      0.366811
     60 O10        -3.4760    0.6840    1.4390 o         1 MOL     -0.535551
     61 C21        -3.0250    2.2190    3.8400 c3        1 MOL     -0.533678
     62 C22        -3.2960    0.8960    4.5230 c         1 MOL      0.782001
     63 O11        -2.4450   -0.0150    4.4960 o         1 MOL     -0.698957
     64 O12        -4.4380    0.7650    5.1250 o         1 MOL     -0.698957
     65 H26        -0.7360    3.9400    2.8430 hn        1 MOL      0.339480
     66 H27        -1.0480    1.6830    3.2030 h1        1 MOL      0.000275
     67 H28        -3.9220    2.5330    3.3130 hc        1 MOL      0.108689
     68 H29        -2.7180    3.0040    4.5300 hc        1 MOL      0.108689
     69 N6         -1.3170    0.6960    0.8270 n         1 MOL     -0.400387
     70 C23         0.1060    1.0020    0.9130 c3        1 MOL      0.090146
     71 C24         0.5010    2.3010    0.1570 c         1 MOL      0.501871
     72 O13        -0.3050    2.7700   -0.5960 o         1 MOL     -0.492142
     73 H30        -1.6030    0.1580    0.0210 hn        1 MOL      0.320992
     74 H31         0.6990    0.1620    0.5470 h1        1 MOL      0.024154
     75 H32         0.4930    1.1190    1.9310 h1        1 MOL      0.024154
     76 N7          1.7270    2.8260    0.4130 n         1 MOL     -0.382788
     77 C25         2.2530    3.9690   -0.2160 c3        1 MOL     -0.030779
     78 C26         2.9930    3.6650   -1.5820 c         1 MOL      0.483031
     79 O14         3.2530    4.6320   -2.3260 o         1 MOL     -0.528990
     80 C27         3.1170    4.6200    0.8870 c3        1 MOL      0.121971
     81 C28         3.1550    6.1260    0.6050 c3        1 MOL     -0.231068
     82 C29         3.7600    6.9730    1.7610 c         1 MOL      0.745613
     83 N8          3.7860    8.2770    1.5420 n         1 MOL     -0.866997
     84 O15         4.0060    6.5500    2.8680 o         1 MOL     -0.589758
     85 H33         2.3140    2.3080    1.0490 hn        1 MOL      0.214809
     86 H34         1.3530    4.5510   -0.4230 h1        1 MOL      0.103308
     87 H35         4.1320    4.2250    0.9090 hc        1 MOL     -0.000910
     88 H36         2.5880    4.5150    1.8340 hc        1 MOL     -0.000910
     89 H37         2.1370    6.4990    0.5080 hc        1 MOL      0.072236
     90 H38         3.7470    6.2540   -0.2970 hc        1 MOL      0.072236
     91 H39         3.4150    8.7020    0.7010 hn        1 MOL      0.368949
     92 H40         3.9430    8.7830    2.4030 hn        1 MOL      0.368949
     93 N9          3.3600    2.4220   -1.8430 n         1 MOL     -0.378470
     94 C30         3.7790    1.9250   -3.2170 c3        1 MOL      0.048950
     95 C31         5.0190    1.0150   -3.2400 c         1 MOL      0.458650
     96 O16         5.5460    0.7710   -4.3520 o         1 MOL     -0.575735
     97 C32         2.6720    1.0360   -3.8590 c3        1 MOL     -0.040662
     98 C33         1.3750    1.8910   -4.0350 c3        1 MOL     -0.002792
     99 C34         2.2980   -0.1390   -2.9410 c3        1 MOL     -0.002792
    100 H41         3.2870    1.7390   -1.1100 hn        1 MOL      0.273654
    101 H42         4.0900    2.7170   -3.8920 h1        1 MOL      0.120847
    102 H43         2.9920    0.5550   -4.7770 hc        1 MOL      0.048453
    103 H44         0.9680    1.9610   -3.0250 hc        1 MOL     -0.003510
    104 H45         1.6430    2.8750   -4.4200 hc        1 MOL     -0.003510
    105 H46         0.6310    1.3970   -4.6490 hc        1 MOL     -0.003510
    106 H47         2.1420    0.1310   -1.8980 hc        1 MOL     -0.003510
    107 H48         1.4130   -0.6700   -3.2990 hc        1 MOL     -0.003510
    108 H49         3.0960   -0.8830   -3.0140 hc        1 MOL     -0.003510
    109 N10         5.6380    0.7260   -2.1140 n         1 MOL     -0.196996
    110 C35         7.0290    0.4070   -2.0480 c3        1 MOL     -0.067705
    111 C36         7.2500   -0.8320   -1.1290 c         1 MOL      0.442578
    112 O17         8.3840   -1.3800   -1.0010 o         1 MOL     -0.523387
    113 C37         7.7280    1.6710   -1.5040 c3        1 MOL     -0.377857
    114 C38         7.6610    2.9310   -2.3270 c         1 MOL      0.541474
    115 N11         7.7190    2.8460   -3.6310 n         1 MOL     -0.678615
    116 O18         7.3880    4.0390   -1.8070 o         1 MOL     -0.524268
    117 H50         5.2180    1.0090   -1.2450 hn        1 MOL      0.196805
    118 H51         7.4820    0.1900   -3.0150 h1        1 MOL      0.139521
    119 H52         8.7510    1.4680   -1.1930 hc        1 MOL      0.160878
    120 H53         7.3660    1.8750   -0.4970 hc        1 MOL      0.160878
    121 H54         7.9080    2.0010   -4.1450 hn        1 MOL      0.347180
    122 H55         7.6310    3.6720   -4.2060 hn        1 MOL      0.347180
    123 N12         6.1460   -1.4040   -0.5430 n         1 MOL     -0.280643
    124 C39         6.1400   -2.3480    0.5510 c3        1 MOL      0.271119
    125 C40         4.7130   -3.0140    0.7020 c         1 MOL      0.188099
    126 O19         3.7550   -2.3480    0.3210 o         1 MOL     -0.355125
    127 C41         6.3770   -1.7110    1.9350 c3        1 MOL      0.036653
    128 C42         7.7690   -1.1970    2.1970 ca        1 MOL     -0.099953
    129 C43         8.7740   -1.9860    2.7190 ca        1 MOL     -0.085440
    130 C44         8.0160    0.1870    1.9500 ca        1 MOL     -0.085440
    131 C45         9.9740   -1.4560    2.9200 ca        1 MOL     -0.220244
    132 C46         9.2570    0.7340    2.1930 ca        1 MOL     -0.220244
    133 C47        10.2630   -0.0920    2.6780 ca        1 MOL      0.298855
    134 O20        11.4960    0.4360    3.0120 oh        1 MOL     -0.483415
    135 H56         5.2250   -1.0850   -0.8050 hn        1 MOL      0.112741
    136 H57         6.8690   -3.1350    0.3790 h1        1 MOL     -0.018226
    137 H58         6.2550   -2.4860    2.6940 hc        1 MOL      0.042270
    138 H59         5.7130   -0.8870    2.1770 hc        1 MOL      0.042270
    139 H60         8.5050   -2.9570    3.1160 ha        1 MOL      0.093399
    140 H61         7.2610    0.8600    1.5650 ha        1 MOL      0.093399
    141 H62        10.7550   -2.1310    3.2510 ha        1 MOL      0.123701
    142 H63         9.3740    1.7970    2.0200 ha        1 MOL      0.123701
    143 H64        12.1000   -0.2800    3.2180 ho        1 MOL      0.338636
    144 N13         4.6770   -4.2170    1.3190 n         1 MOL     -0.394100
    145 C48         3.4780   -4.9300    1.6780 c3        1 MOL      0.089874
    146 C49         2.5920   -5.4470    0.5370 c         1 MOL      0.374946
    147 O21         2.3490   -6.6310    0.5340 o         1 MOL     -0.529466
    148 C50         2.6910   -4.2940    2.9800 c3        1 MOL     -0.035370
    149 C51         2.0470   -2.8940    2.7430 c3        1 MOL      0.004519
    150 C52         1.1490   -2.3560    3.8550 c         1 MOL      0.670796
    151 O22         1.4220   -1.5590    4.8030 o         1 MOL     -0.678528
    152 O23        -0.0020   -2.7980    3.7390 o         1 MOL     -0.678528
    153 H65         5.5610   -4.5750    1.6530 hn        1 MOL      0.302112
    154 H66         3.9500   -5.8070    2.1310 h1        1 MOL      0.019190
    155 H67         3.4240   -4.0890    3.7520 hc        1 MOL      0.023869
    156 H68         1.8820   -4.9200    3.3560 hc        1 MOL      0.023869
    157 H69         1.4940   -2.8830    1.8060 hc        1 MOL     -0.081132
    158 H70         2.8760   -2.1950    2.7350 hc        1 MOL     -0.081132
    159 N14         2.0100   -4.5470   -0.2610 n         1 MOL      0.013469
    160 C53         0.9730   -4.7240   -1.3200 c3        1 MOL     -0.324186
    161 C54         1.4130   -5.6290   -2.5380 c         1 MOL      0.548285
    162 O24         0.5710   -6.1810   -3.2340 o         1 MOL     -0.530401
    163 C55         0.4530   -3.3130   -1.7380 c3        1 MOL     -0.035978
    164 C56         0.0020   -2.2040   -0.7320 c3        1 MOL      0.522535
    165 C57        -1.2790   -2.7280   -0.0980 c         1 MOL      0.454374
    166 O25        -1.3760   -3.8800    0.2700 o         1 MOL     -0.575920
    167 O26        -2.2460   -1.9620    0.0410 o         1 MOL     -0.575920
    168 H71         2.2130   -3.5930    0.0050 hn        1 MOL      0.096475
    169 H72         0.2110   -5.3700   -0.8740 h1        1 MOL      0.187173
    170 H73        -0.3500   -3.3930   -2.4730 hc        1 MOL     -0.002651
    171 H74         1.2860   -2.8710   -2.2720 hc        1 MOL     -0.002651
    172 H75        -0.2030   -1.2750   -1.2650 hc        1 MOL     -0.147160
    173 H76         0.7130   -2.1020    0.0860 hc        1 MOL     -0.147160
    174 N15         2.7240   -5.8270   -2.7090 n         1 MOL     -0.263011
    175 C58         3.3250   -6.7430   -3.6440 c3        1 MOL     -0.258925
    176 H77         2.6670   -6.8670   -4.5040 h1        1 MOL      0.103590
    177 H78         4.2850   -6.3480   -3.9760 h1        1 MOL      0.103590
    178 H79         3.4760   -7.7090   -3.1620 h1        1 MOL      0.103590
    179 H80         3.3660   -5.4330   -2.0460 hn        1 MOL      0.209204
    180 Ca1        -4.4150   -1.8810    1.1970 Ca        1 MOL      1.681934
    181 O27        -2.6340   -2.1180    3.0520 oh        1 MOL     -0.767715
    182 O28        -5.8800   -0.0410    2.5900 oh        1 MOL     -0.767715
    183 H81        -1.7480   -2.4670    3.1060 ho        1 MOL      0.364031
    184 H82        -5.7670    0.2320    3.5030 ho        1 MOL      0.364031
    185 H83        -2.5930   -1.2830    3.5320 ho        1 MOL      0.364031
    186 H84        -6.5560    0.5420    2.2460 ho        1 MOL      0.364031
    187 O29        -4.0210   -4.6070    1.3860 oh        1 MOL     -0.767715
    188 H85        -4.5830   -5.1430    0.8260 ho        1 MOL      0.364031
    189 H86        -3.1300   -4.7760    1.0560 ho        1 MOL      0.364031
    190 O30        -5.6040   -2.5440    3.6640 oh        1 MOL     -0.767715
    191 H87        -6.1560   -1.7650    3.7150 ho        1 MOL      0.364031
    192 H88        -5.7780   -3.0220    4.4750 ho        1 MOL      0.364031
@<TRIPOS>BOND
     1    1    2 1   
     2    1    4 1   
     3    1    5 1   
     4    1    6 1   
     5    2    3 2   
     6    2    7 1   
     7    7    8 1   
     8    7   15 1   
     9    8    9 1   
    10    8   11 1   
    11    8   16 1   
    12    9   10 2   
    13    9   19 1   
    14   11   12 1   
    15   11   17 1   
    16   11   18 1   
    17   12   13 1   
    18   12   14 1   
    19   19   20 1   
    20   19   27 1   
    21   20   21 1   
    22   20   23 1   
    23   20   28 1   
    24   21   22 2   
    25   21   38 1   
    26   23   24 1   
    27   23   25 1   
    28   23   29 1   
    29   24   26 1   
    30   24   30 1   
    31   24   31 1   
    32   25   32 1   
    33   25   33 1   
    34   25   34 1   
    35   26   35 1   
    36   26   36 1   
    37   26   37 1   
    38   38   39 1   
    39   38   46 1   
    40   39   40 1   
    41   39   42 1   
    42   39   47 1   
    43   40   41 2   
    44   40   50 1   
    45   42   43 1   
    46   42   48 1   
    47   42   49 1   
    48   43   44 1   
    49   43   45 1   
    50   50   51 1   
    51   50   54 1   
    52   51   52 1   
    53   51   55 1   
    54   51   56 1   
    55   52   53 2   
    56   52   57 1   
    57   57   58 1   
    58   57   65 1   
    59   58   59 1   
    60   58   61 1   
    61   58   66 1   
    62   59   60 2   
    63   59   69 1   
    64   61   62 1   
    65   61   67 1   
    66   61   68 1   
    67   62   63 1   
    68   62   64 1   
    69   69   70 1   
    70   69   73 1   
    71   70   71 1   
    72   70   74 1   
    73   70   75 1   
    74   71   72 2   
    75   71   76 1   
    76   76   77 1   
    77   76   85 1   
    78   77   78 1   
    79   77   80 1   
    80   77   86 1   
    81   78   79 2   
    82   78   93 1   
    83   80   81 1   
    84   80   87 1   
    85   80   88 1   
    86   81   82 1   
    87   81   89 1   
    88   81   90 1   
    89   82   83 1   
    90   82   84 2   
    91   83   91 1   
    92   83   92 1   
    93   93   94 1   
    94   93  100 1   
    95   94   95 1   
    96   94   97 1   
    97   94  101 1   
    98   95   96 2   
    99   95  109 1   
   100   97   98 1   
   101   97   99 1   
   102   97  102 1   
   103   98  103 1   
   104   98  104 1   
   105   98  105 1   
   106   99  106 1   
   107   99  107 1   
   108   99  108 1   
   109  109  110 1   
   110  109  117 1   
   111  110  111 1   
   112  110  113 1   
   113  110  118 1   
   114  111  112 2   
   115  111  123 1   
   116  113  114 1   
   117  113  119 1   
   118  113  120 1   
   119  114  115 1   
   120  114  116 2   
   121  115  121 1   
   122  115  122 1   
   123  123  124 1   
   124  123  135 1   
   125  124  125 1   
   126  124  127 1   
   127  124  136 1   
   128  125  126 2   
   129  125  144 1   
   130  127  128 1   
   131  127  137 1   
   132  127  138 1   
   133  128  129 ar  
   134  128  130 ar  
   135  129  131 ar  
   136  129  139 1   
   137  130  132 ar  
   138  130  140 1   
   139  131  133 ar  
   140  131  141 1   
   141  132  133 ar  
   142  132  142 1   
   143  133  134 1   
   144  134  143 1   
   145  144  145 1   
   146  144  153 1   
   147  145  146 1   
   148  145  148 1   
   149  145  154 1   
   150  146  147 2   
   151  146  159 1   
   152  148  149 1   
   153  148  155 1   
   154  148  156 1   
   155  149  150 1   
   156  149  157 1   
   157  149  158 1   
   158  150  151 1   
   159  150  152 1   
   160  159  160 1   
   161  159  168 1   
   162  160  161 1   
   163  160  163 1   
   164  160  169 1   
   165  161  162 2   
   166  161  174 1   
   167  163  164 1   
   168  163  170 1   
   169  163  171 1   
   170  164  165 1   
   171  164  172 1   
   172  164  173 1   
   173  165  166 1   
   174  165  167 1   
   175  174  175 1   
   176  174  179 1   
   177  175  176 1   
   178  175  177 1   
   179  175  178 1   
   180  181  183 1   
   181  181  185 1   
   182  182  184 1   
   183  182  186 1   
   184  187  188 1   
   185  187  189 1   
   186  190  191 1   
   187  190  192 1   
@<TRIPOS>SUBSTRUCTURE
     1 MOL         1 TEMP              0 ****  ****    0 ROOT
