@<TRIPOS>MOLECULE
MOL
  181   177     1     0     0
SMALL
resp


@<TRIPOS>ATOM
      1 C1          1.6960    7.4960   -1.5760 c3        1 MOL     -0.420977
      2 C2          3.1130    6.8850   -1.3120 c         1 MOL      0.738456
      3 O1          3.7200    7.2310   -0.3200 o         1 MOL     -0.589475
      4 H1          1.0630    7.3350   -0.7030 hc        1 MOL      0.104618
      5 H2          1.7900    8.5660   -1.7630 hc        1 MOL      0.104618
      6 H3          1.2470    7.0130   -2.4430 hc        1 MOL      0.104618
      7 N1          3.6910    6.0570   -2.2240 n         1 MOL     -0.685132
      8 C3          4.9080    5.2610   -1.8330 c3        1 MOL      0.297692
      9 C4          4.7720    4.3190   -0.6040 c         1 MOL      0.579183
     10 O2          4.4530    3.1770   -0.7300 o         1 MOL     -0.483122
     11 C5          5.3070    4.4300   -3.1290 c3        1 MOL     -0.352304
     12 C6          6.5300    3.5430   -3.0690 c         1 MOL      0.755292
     13 O3          6.7660    2.7600   -4.0320 o         1 MOL     -0.742898
     14 O4          7.3400    3.6870   -2.1330 o         1 MOL     -0.742898
     15 H4          3.1880    5.7520   -3.0400 hn        1 MOL      0.335730
     16 H5          5.6830    5.9960   -1.6250 h1        1 MOL      0.021754
     17 H6          5.5350    5.0910   -3.9640 hc        1 MOL      0.050444
     18 H7          4.4300    3.8500   -3.4250 hc        1 MOL      0.050444
     19 N2          5.0340    4.8540    0.6490 n         1 MOL     -0.759495
     20 C7          4.8900    4.0770    1.8800 c3        1 MOL      0.578051
     21 C8          3.3990    3.7390    2.0450 c         1 MOL      0.500514
     22 O5          2.5090    4.4620    1.6850 o         1 MOL     -0.568044
     23 C9          5.4450    4.8900    3.1350 c3        1 MOL     -0.494460
     24 H8          5.2240    5.8440    0.7510 hn        1 MOL      0.344029
     25 H9          5.3780    3.1090    1.7240 h1        1 MOL     -0.038391
     26 H10         5.0700    4.4540    4.0570 hc        1 MOL      0.123792
     27 H11         6.5250    5.0300    3.0730 hc        1 MOL      0.123792
     28 H12         4.9670    5.8710    3.0440 hc        1 MOL      0.123792
     29 N3          3.0870    2.6260    2.7470 n         1 MOL     -0.617444
     30 C10         4.0690    1.6620    3.2260 c3        1 MOL      0.342947
     31 C11         4.2390    0.4910    2.2350 c         1 MOL      0.415908
     32 O6          3.5370    0.2150    1.3010 o         1 MOL     -0.432380
     33 C12         3.6380    1.0340    4.5850 c3        1 MOL     -0.353365
     34 C13         2.2770    0.3660    4.6810 c         1 MOL      0.754262
     35 O7          1.5660    0.3000    3.6810 o         1 MOL     -0.679153
     36 O8          1.9440   -0.1530    5.7380 o         1 MOL     -0.679153
     37 H13         2.1040    2.4090    2.7970 hn        1 MOL      0.346098
     38 H14         5.0640    2.0550    3.4090 h1        1 MOL     -0.027182
     39 H15         3.7150    1.8030    5.3570 hc        1 MOL      0.058201
     40 H16         4.3590    0.2830    4.9250 hc        1 MOL      0.058201
     41 N4          5.4140   -0.2490    2.4780 n         1 MOL     -0.618355
     42 C14         5.8740   -1.2970    1.5620 c3        1 MOL      0.221355
     43 C15         6.4710   -0.7750    0.2240 c         1 MOL      0.340272
     44 O9          6.4440    0.4460   -0.0170 o         1 MOL     -0.399015
     45 H17         6.0310    0.0690    3.2140 hn        1 MOL      0.331323
     46 H18         4.9720   -1.8670    1.3130 h1        1 MOL      0.018468
     47 H19         6.5530   -1.9620    2.0810 h1        1 MOL      0.018468
     48 N5          6.8130   -1.6150   -0.7820 n         1 MOL     -0.291799
     49 C16         6.8140   -3.0850   -0.7040 c3        1 MOL      0.028038
     50 C17         5.7270   -3.6900   -1.6290 c         1 MOL      0.467004
     51 O10         5.4400   -4.8960   -1.4590 o         1 MOL     -0.534083
     52 C18         8.1800   -3.6200   -1.1680 c3        1 MOL     -0.122357
     53 C19         9.3470   -3.0420   -0.4190 c         1 MOL      0.634279
     54 N6         10.2410   -2.4060   -1.1150 n         1 MOL     -0.801649
     55 O11         9.2600   -2.9150    0.7930 o         1 MOL     -0.554592
     56 H20         7.1470   -1.1270   -1.6010 hn        1 MOL      0.252406
     57 H21         6.6020   -3.3710    0.3310 h1        1 MOL      0.074716
     58 H22         8.2700   -3.4150   -2.2400 hc        1 MOL      0.035873
     59 H23         8.3050   -4.6860   -1.0060 hc        1 MOL      0.035873
     60 H24        10.1590   -2.3030   -2.1170 hn        1 MOL      0.381904
     61 H25        11.0120   -1.9540   -0.6400 hn        1 MOL      0.381904
     62 N7          5.0820   -2.9680   -2.5680 n         1 MOL     -0.304237
     63 C20         4.0750   -3.3580   -3.4890 c3        1 MOL     -0.214877
     64 C21         2.6570   -3.6430   -2.8500 c         1 MOL      0.543802
     65 O12         1.7220   -2.9680   -3.1590 o         1 MOL     -0.547096
     66 H26         5.2490   -1.9810   -2.4380 hn        1 MOL      0.257059
     67 H27         4.4350   -4.2560   -3.9800 h1        1 MOL      0.131568
     68 H28         4.0220   -2.5600   -4.2250 h1        1 MOL      0.131568
     69 N8          2.5360   -4.5160   -1.8770 n         1 MOL     -0.435171
     70 C22         1.2290   -4.9700   -1.2340 c3        1 MOL      0.037265
     71 C23         0.1710   -3.8160   -0.9270 c         1 MOL      0.416087
     72 O13         0.2880   -2.8680   -0.1500 o         1 MOL     -0.442359
     73 C24         1.5360   -5.7530    0.0470 c3        1 MOL      0.200837
     74 C25         0.3440   -6.2560    0.8040 c3        1 MOL     -0.178056
     75 O14         2.0840   -6.9670   -0.3380 oh        1 MOL     -0.642306
     76 H29         3.4030   -4.9800   -1.6390 hn        1 MOL      0.276924
     77 H30         0.7440   -5.5980   -1.9830 h1        1 MOL      0.116137
     78 H31         2.1970   -5.2190    0.7220 h1        1 MOL      0.050388
     79 H32         2.4400   -7.4120    0.4270 ho        1 MOL      0.405862
     80 H33        -0.1460   -5.3070    1.0530 hc        1 MOL      0.063162
     81 H34        -0.2940   -6.7120    0.0530 hc        1 MOL      0.063162
     82 H35         0.6100   -6.9610    1.5810 hc        1 MOL      0.063162
     83 N9         -1.0400   -4.1100   -1.4640 n         1 MOL     -0.288148
     84 C26        -2.2850   -3.3780   -1.2820 c3        1 MOL     -0.180552
     85 C27        -2.8800   -3.6680    0.1210 c         1 MOL      0.376737
     86 O15        -3.1030   -4.8190    0.4410 o         1 MOL     -0.530345
     87 C28        -3.2290   -3.6210   -2.4860 c3        1 MOL      0.274827
     88 C29        -4.5760   -2.8190   -2.3100 c3        1 MOL      0.201255
     89 C30        -2.5600   -3.1690   -3.8210 c3        1 MOL     -0.367283
     90 C31        -5.5390   -3.3560   -3.3680 c3        1 MOL     -0.366659
     91 H36        -1.0930   -4.9790   -1.9800 hn        1 MOL      0.240433
     92 H37        -2.0320   -2.3180   -1.2970 h1        1 MOL      0.248347
     93 H38        -3.4530   -4.6880   -2.5310 hc        1 MOL     -0.023506
     94 H39        -4.4640   -1.7500   -2.4950 hc        1 MOL     -0.012316
     95 H40        -4.8640   -2.9710   -1.2660 hc        1 MOL     -0.012316
     96 H41        -2.5820   -2.0840   -3.8660 hc        1 MOL      0.079938
     97 H42        -1.5390   -3.5560   -3.9010 hc        1 MOL      0.079938
     98 H43        -3.2190   -3.5280   -4.6190 hc        1 MOL      0.079938
     99 H44        -5.3210   -2.8450   -4.3140 hc        1 MOL      0.068716
    100 H45        -5.6100   -4.4360   -3.4080 hc        1 MOL      0.068716
    101 H46        -6.4800   -2.9900   -2.9650 hc        1 MOL      0.068716
    102 N10        -3.2440   -2.6290    0.8940 n         1 MOL      0.055360
    103 C32        -3.8330   -2.6310    2.2220 c3        1 MOL     -0.066880
    104 C33        -5.1520   -1.8790    2.2980 c         1 MOL      0.545645
    105 O16        -5.8830   -1.9690    3.2600 o         1 MOL     -0.547529
    106 C34        -2.8650   -1.9400    3.1850 c3        1 MOL     -0.069705
    107 C35        -1.4780   -2.5760    3.1510 c         1 MOL      0.738140
    108 O17        -1.4230   -3.8480    3.1600 o         1 MOL     -0.725161
    109 O18        -0.4430   -1.8920    3.1180 o         1 MOL     -0.725161
    110 H47        -3.1450   -1.7440    0.4130 hn        1 MOL     -0.212734
    111 H48        -4.0330   -3.6540    2.5700 h1        1 MOL      0.100585
    112 H49        -3.2710   -1.9320    4.1990 hc        1 MOL      0.032686
    113 H50        -2.7390   -0.8940    2.9160 hc        1 MOL      0.032686
    114 N11        -5.4420   -1.1060    1.1890 n         1 MOL     -0.610925
    115 C36        -6.6430   -0.2890    1.1680 c3        1 MOL      0.692197
    116 C37        -6.3110    1.2210    0.8640 c         1 MOL      0.109268
    117 O19        -7.0780    1.7540    0.0100 o         1 MOL     -0.466694
    118 C38        -7.6460   -1.0030    0.2870 c3        1 MOL     -0.238435
    119 C39        -9.0470   -0.4980    0.1510 ca        1 MOL      0.073166
    120 C40        -9.8420    0.0620    1.1900 ca        1 MOL     -0.136003
    121 C41        -9.6180   -0.6030   -1.1360 ca        1 MOL     -0.136003
    122 C42       -11.1730    0.5130    0.9760 ca        1 MOL     -0.129503
    123 C43       -10.9520   -0.1950   -1.3680 ca        1 MOL     -0.129503
    124 C44       -11.7440    0.4230   -0.3160 ca        1 MOL     -0.137796
    125 H51        -4.7610   -0.9730    0.4560 hn        1 MOL      0.240552
    126 H52        -7.0090   -0.2730    2.1890 h1        1 MOL     -0.066420
    127 H53        -7.6970   -2.0120    0.6970 hc        1 MOL      0.073288
    128 H54        -7.2240   -1.1410   -0.7100 hc        1 MOL      0.073288
    129 H55        -9.4250    0.1260    2.1850 ha        1 MOL      0.106509
    130 H56        -9.0700   -1.0130   -1.9700 ha        1 MOL      0.106509
    131 H57       -11.8110    0.8950    1.7570 ha        1 MOL      0.103979
    132 H58       -11.3620   -0.4220   -2.3330 ha        1 MOL      0.103979
    133 H59       -12.7860    0.7110   -0.3940 ha        1 MOL      0.102613
    134 N12        -5.2640    1.9730    1.3170 n         1 MOL      0.037826
    135 C45        -5.1570    3.4260    1.0510 c3        1 MOL      0.019383
    136 C46        -4.7310    3.8190   -0.3830 c         1 MOL      0.280056
    137 O20        -5.3060    4.7630   -0.9900 o         1 MOL     -0.471433
    138 C47        -4.0950    3.9290    2.1140 c3        1 MOL      0.046561
    139 C48        -4.3300    2.9370    3.2890 c3        1 MOL     -0.050715
    140 C49        -4.5160    1.6910    2.5080 c3        1 MOL     -0.124419
    141 H60        -6.0980    3.9560    1.2360 h1        1 MOL      0.070966
    142 H61        -3.0700    3.8620    1.7430 hc        1 MOL     -0.008171
    143 H62        -4.4270    4.8840    2.5360 hc        1 MOL     -0.008171
    144 H63        -3.5670    2.8950    4.0700 hc        1 MOL      0.046454
    145 H64        -5.2570    3.1180    3.8570 hc        1 MOL      0.046454
    146 H65        -3.6000    1.1840    2.2350 h1        1 MOL      0.074458
    147 H66        -5.0820    0.9850    3.1140 h1        1 MOL      0.074458
    148 N13        -3.8850    2.9280   -1.0220 n         1 MOL     -0.188283
    149 C50        -3.5310    3.0120   -2.4320 c3        1 MOL     -0.084785
    150 C51        -4.7260    3.0630   -3.4010 c         1 MOL      0.452804
    151 O21        -4.7730    3.8310   -4.3800 o         1 MOL     -0.563430
    152 C52        -2.8510    1.6350   -2.7900 c3        1 MOL     -0.012172
    153 C53        -1.7250    1.1290   -1.8260 c3        1 MOL     -0.029226
    154 C54        -2.2070    0.3800   -0.5870 c         1 MOL      0.402165
    155 O22        -1.3190    0.0800    0.2440 o         1 MOL     -0.591800
    156 O23        -3.3530    0.0630   -0.3940 o         1 MOL     -0.591800
    157 H67        -3.6260    2.1030   -0.4860 hn        1 MOL      0.260260
    158 H68        -2.7940    3.7620   -2.7080 h1        1 MOL      0.095996
    159 H69        -2.3610    1.9050   -3.7220 hc        1 MOL      0.009648
    160 H70        -3.5510    0.8100   -2.9670 hc        1 MOL      0.009648
    161 H71        -1.2830    2.0650   -1.4940 hc        1 MOL      0.028167
    162 H72        -1.0330    0.5810   -2.4700 hc        1 MOL      0.028167
    163 N14        -5.6490    2.1220   -3.3160 n         1 MOL     -0.152045
    164 C55        -6.8760    2.1440   -4.1580 c3        1 MOL     -0.167893
    165 H73        -7.7560    2.0820   -3.5170 h1        1 MOL      0.080275
    166 H74        -6.9080    3.0710   -4.7300 h1        1 MOL      0.080275
    167 H75        -6.8640    1.2950   -4.8400 h1        1 MOL      0.080275
    168 H76        -5.6540    1.4320   -2.5770 hn        1 MOL      0.216101
    169 Ca1         0.8250   -0.6080    1.3760 Ca        1 MOL      1.687369
    170 O24         2.5160   -2.5800    1.9450 oh        1 MOL     -0.851435
    171 H77         2.2210   -3.4720    2.1570 ho        1 MOL      0.410551
    172 H78         3.3910   -2.5210    2.3360 ho        1 MOL      0.410551
    173 O25        -0.9250    1.1310    2.5870 oh        1 MOL     -0.851435
    174 H79        -1.3850    0.8770    1.7970 ho        1 MOL      0.410551
    175 H80        -0.8580    2.0800    2.5300 ho        1 MOL      0.410551
    176 O26         1.8870   -0.7240   -1.0570 oh        1 MOL     -0.851435
    177 H81         2.7120   -0.2270   -1.0350 ho        1 MOL      0.410551
    178 H82         1.9010   -1.1710   -1.9040 ho        1 MOL      0.410551
    179 O27         1.4050    2.0140    0.2250 oh        1 MOL     -0.851435
    180 H83         1.2270    2.8950    0.5630 ho        1 MOL      0.410551
    181 H84         1.8030    2.1720   -0.6330 ho        1 MOL      0.410551
@<TRIPOS>BOND
     1    1    2 1   
     2    1    4 1   
     3    1    5 1   
     4    1    6 1   
     5    2    3 2   
     6    2    7 1   
     7    7    8 1   
     8    7   15 1   
     9    8    9 1   
    10    8   11 1   
    11    8   16 1   
    12    9   10 2   
    13    9   19 1   
    14   11   12 1   
    15   11   17 1   
    16   11   18 1   
    17   12   13 1   
    18   12   14 1   
    19   19   20 1   
    20   19   24 1   
    21   20   21 1   
    22   20   23 1   
    23   20   25 1   
    24   21   22 2   
    25   21   29 1   
    26   23   26 1   
    27   23   27 1   
    28   23   28 1   
    29   29   30 1   
    30   29   37 1   
    31   30   31 1   
    32   30   33 1   
    33   30   38 1   
    34   31   32 2   
    35   31   41 1   
    36   33   34 1   
    37   33   39 1   
    38   33   40 1   
    39   34   35 1   
    40   34   36 1   
    41   41   42 1   
    42   41   45 1   
    43   42   43 1   
    44   42   46 1   
    45   42   47 1   
    46   43   44 2   
    47   43   48 1   
    48   48   49 1   
    49   48   56 1   
    50   49   50 1   
    51   49   52 1   
    52   49   57 1   
    53   50   51 2   
    54   50   62 1   
    55   52   53 1   
    56   52   58 1   
    57   52   59 1   
    58   53   54 1   
    59   53   55 2   
    60   54   60 1   
    61   54   61 1   
    62   62   63 1   
    63   62   66 1   
    64   63   64 1   
    65   63   67 1   
    66   63   68 1   
    67   64   65 2   
    68   64   69 1   
    69   69   70 1   
    70   69   76 1   
    71   70   71 1   
    72   70   73 1   
    73   70   77 1   
    74   71   72 2   
    75   71   83 1   
    76   73   74 1   
    77   73   75 1   
    78   73   78 1   
    79   74   80 1   
    80   74   81 1   
    81   74   82 1   
    82   75   79 1   
    83   83   84 1   
    84   83   91 1   
    85   84   85 1   
    86   84   87 1   
    87   84   92 1   
    88   85   86 2   
    89   85  102 1   
    90   87   88 1   
    91   87   89 1   
    92   87   93 1   
    93   88   90 1   
    94   88   94 1   
    95   88   95 1   
    96   89   96 1   
    97   89   97 1   
    98   89   98 1   
    99   90   99 1   
   100   90  100 1   
   101   90  101 1   
   102  102  103 1   
   103  102  110 1   
   104  103  104 1   
   105  103  106 1   
   106  103  111 1   
   107  104  105 2   
   108  104  114 1   
   109  106  107 1   
   110  106  112 1   
   111  106  113 1   
   112  107  108 1   
   113  107  109 1   
   114  114  115 1   
   115  114  125 1   
   116  115  116 1   
   117  115  118 1   
   118  115  126 1   
   119  116  117 2   
   120  116  134 1   
   121  118  119 1   
   122  118  127 1   
   123  118  128 1   
   124  119  120 ar  
   125  119  121 ar  
   126  120  122 ar  
   127  120  129 1   
   128  121  123 ar  
   129  121  130 1   
   130  122  124 ar  
   131  122  131 1   
   132  123  124 ar  
   133  123  132 1   
   134  124  133 1   
   135  134  135 1   
   136  134  140 1   
   137  135  136 1   
   138  135  138 1   
   139  135  141 1   
   140  136  137 2   
   141  136  148 1   
   142  138  139 1   
   143  138  142 1   
   144  138  143 1   
   145  139  140 1   
   146  139  144 1   
   147  139  145 1   
   148  140  146 1   
   149  140  147 1   
   150  148  149 1   
   151  148  157 1   
   152  149  150 1   
   153  149  152 1   
   154  149  158 1   
   155  150  151 2   
   156  150  163 1   
   157  152  153 1   
   158  152  159 1   
   159  152  160 1   
   160  153  154 1   
   161  153  161 1   
   162  153  162 1   
   163  154  155 1   
   164  154  156 1   
   165  163  164 1   
   166  163  168 1   
   167  164  165 1   
   168  164  166 1   
   169  164  167 1   
   170  170  171 1   
   171  170  172 1   
   172  173  174 1   
   173  173  175 1   
   174  176  177 1   
   175  176  178 1   
   176  179  180 1   
   177  179  181 1   
@<TRIPOS>SUBSTRUCTURE
     1 MOL         1 TEMP              0 ****  ****    0 ROOT
