@<TRIPOS>MOLECULE
MOL
  192   187     1     0     0
SMALL
resp


@<TRIPOS>ATOM
      1 C1         -4.0130   -2.1710    2.7440 c3        1 MOL     -0.123783
      2 C2         -3.0900   -2.5770    1.5310 c         1 MOL      0.443500
      3 O1         -2.2090   -1.7640    1.1420 o         1 MOL     -0.457807
      4 H1         -3.9190   -1.1010    2.9290 hc        1 MOL      0.020593
      5 H2         -5.0500   -2.4080    2.5080 hc        1 MOL      0.020593
      6 H3         -3.7070   -2.7200    3.6340 hc        1 MOL      0.020593
      7 N1         -3.2710   -3.7380    0.9410 n         1 MOL     -0.357853
      8 C3         -2.4890   -4.4180   -0.1070 c3        1 MOL      0.011761
      9 C4         -0.9340   -4.3940    0.1270 c         1 MOL      0.731286
     10 O2         -0.1700   -4.0550   -0.7890 o         1 MOL     -0.498997
     11 C5         -3.0150   -3.8290   -1.4760 c3        1 MOL     -0.578999
     12 C6         -4.5130   -3.9180   -1.7770 c         1 MOL      1.024263
     13 O3         -5.2320   -4.8720   -1.4170 o         1 MOL     -0.819084
     14 O4         -4.9840   -2.9610   -2.4600 o         1 MOL     -0.819084
     15 H4         -4.0310   -4.3230    1.2650 hn        1 MOL      0.210036
     16 H5         -2.8140   -5.4590   -0.0140 h1        1 MOL      0.087582
     17 H6         -2.6580   -4.4420   -2.3020 hc        1 MOL      0.169356
     18 H7         -2.6020   -2.8230   -1.5470 hc        1 MOL      0.169356
     19 N2         -0.4960   -4.6120    1.4370 n         1 MOL     -0.749305
     20 C7          0.9170   -4.5320    1.8060 c3        1 MOL     -0.006263
     21 C8          1.6690   -5.6000    0.9950 c         1 MOL      0.373409
     22 O5          1.1420   -6.6450    0.6840 o         1 MOL     -0.554242
     23 C9          1.3800   -4.6630    3.2880 c3        1 MOL      0.285339
     24 C10         1.2230   -6.0910    3.8900 c3        1 MOL      0.004363
     25 C11         0.5730   -3.7060    4.1290 c3        1 MOL     -0.076103
     26 C12         1.7270   -6.1950    5.3170 c3        1 MOL     -0.100548
     27 H8         -1.1110   -4.6100    2.2380 hn        1 MOL      0.365993
     28 H9          1.2990   -3.5650    1.4940 h1        1 MOL      0.106979
     29 H10         2.4330   -4.4100    3.4520 hc        1 MOL      0.015638
     30 H11         1.8740   -6.8100    3.3840 hc        1 MOL      0.008094
     31 H12         0.2010   -6.4400    3.8830 hc        1 MOL      0.008094
     32 H13        -0.4430   -4.0920    4.1420 hc        1 MOL     -0.012109
     33 H14         0.9950   -3.5330    5.1350 hc        1 MOL     -0.012109
     34 H15         0.5420   -2.7580    3.5930 hc        1 MOL     -0.012109
     35 H16         2.8040   -6.0220    5.3280 hc        1 MOL      0.007821
     36 H17         1.0990   -5.6480    6.0300 hc        1 MOL      0.007821
     37 H18         1.5940   -7.2200    5.6680 hc        1 MOL      0.007821
     38 N3          2.9390   -5.3760    0.7090 n         1 MOL     -0.342630
     39 C13         3.8070   -4.2020    0.9850 c3        1 MOL     -0.061290
     40 C14         3.7240   -3.1570   -0.1980 c         1 MOL      0.574601
     41 O6          4.2320   -2.0460   -0.0960 o         1 MOL     -0.532795
     42 C15         5.2290   -4.8390    1.1870 c3        1 MOL     -0.067385
     43 C16         5.6710   -5.8040    0.0820 c         1 MOL      0.634320
     44 O7          4.8530   -6.6290   -0.4730 o         1 MOL     -0.679542
     45 O8          6.8710   -5.6710   -0.2480 o         1 MOL     -0.679542
     46 H19         3.3710   -6.1790    0.2820 hn        1 MOL      0.242460
     47 H20         3.6250   -3.6610    1.9120 h1        1 MOL      0.072246
     48 H21         5.3240   -5.3140    2.1590 hc        1 MOL      0.009316
     49 H22         5.8980   -3.9660    1.2230 hc        1 MOL      0.009316
     50 N4          3.0330   -3.5370   -1.3130 n         1 MOL     -0.341762
     51 C17         3.0560   -2.7520   -2.4880 c3        1 MOL     -0.333108
     52 C18         4.4710   -2.5280   -2.9840 c         1 MOL      0.548409
     53 O9          5.2450   -3.4500   -3.1770 o         1 MOL     -0.520162
     54 H23         2.5180   -4.4010   -1.4040 hn        1 MOL      0.358674
     55 H24         2.5360   -1.8130   -2.2920 h1        1 MOL      0.146498
     56 H25         2.4650   -3.2840   -3.2330 h1        1 MOL      0.146498
     57 N5          4.8880   -1.2870   -3.1490 n         1 MOL     -0.462080
     58 C19         6.3300   -0.8890   -3.4940 c3        1 MOL      0.213919
     59 C20         7.2930   -0.7610   -2.2870 c         1 MOL      0.335571
     60 O10         8.4490   -0.4250   -2.4270 o         1 MOL     -0.538614
     61 C21         6.3580    0.3590   -4.3980 c3        1 MOL     -0.291895
     62 C22         5.5290    1.5580   -3.9610 c         1 MOL      0.750593
     63 O11         5.3470    1.7550   -2.7080 o         1 MOL     -0.683383
     64 O12         4.9810    2.2610   -4.7900 o         1 MOL     -0.683383
     65 H26         4.4230   -0.4820   -2.7580 hn        1 MOL      0.273453
     66 H27         6.7430   -1.7030   -4.0780 h1        1 MOL      0.052537
     67 H28         5.8610    0.0340   -5.3170 hc        1 MOL      0.031649
     68 H29         7.3720    0.7370   -4.4990 hc        1 MOL      0.031649
     69 N6          6.7810   -1.0180   -1.1170 n         1 MOL     -0.054879
     70 C23         7.5180   -0.7560    0.0850 c3        1 MOL     -0.262182
     71 C24         7.5730    0.7290    0.4590 c         1 MOL      0.523442
     72 O13         8.2550    1.0670    1.4740 o         1 MOL     -0.612367
     73 H30         5.8030   -1.2390   -1.0100 hn        1 MOL      0.217332
     74 H31         8.4700   -1.2910    0.0250 h1        1 MOL      0.119066
     75 H32         6.8980   -1.2730    0.8120 h1        1 MOL      0.119066
     76 N7          6.9300    1.6060   -0.2730 n         1 MOL     -0.062409
     77 C25         6.9270    3.0450   -0.1540 c3        1 MOL      0.144511
     78 C26         6.3220    3.5910    1.2370 c         1 MOL      0.442712
     79 O14         6.7290    4.6610    1.7290 o         1 MOL     -0.503221
     80 C27         8.2630    3.5660   -0.5900 c3        1 MOL     -0.155642
     81 C28         8.5410    2.9610   -1.9230 c3        1 MOL      0.138293
     82 C29         9.7530    3.5890   -2.6150 c         1 MOL      0.521072
     83 N8         10.4100    2.8680   -3.5470 n         1 MOL     -0.760506
     84 O15        10.2190    4.7040   -2.3100 o         1 MOL     -0.577730
     85 H33         6.4410    1.2520   -1.0840 hn        1 MOL     -0.018937
     86 H34         6.2060    3.2840   -0.9410 h1        1 MOL      0.036292
     87 H35         9.0520    3.3000    0.1140 hc        1 MOL      0.031766
     88 H36         8.1270    4.6540   -0.5850 hc        1 MOL      0.031766
     89 H37         7.7510    3.1910   -2.6240 hc        1 MOL      0.021361
     90 H38         8.8100    1.9030   -1.8840 hc        1 MOL      0.021361
     91 H39        10.0390    1.9640   -3.7850 hn        1 MOL      0.343132
     92 H40        11.0740    3.3870   -4.0920 hn        1 MOL      0.343132
     93 N9          5.3540    2.8150    1.7490 n         1 MOL     -0.471697
     94 C30         4.7220    3.0080    3.1060 c3        1 MOL      0.029164
     95 C31         3.2310    3.0930    3.0460 c         1 MOL      0.542043
     96 O16         2.6040    3.4400    4.0690 o         1 MOL     -0.599417
     97 C32         5.3080    2.1260    4.2610 c3        1 MOL      0.278664
     98 C33         5.0960    0.6800    4.0460 c3        1 MOL     -0.304702
     99 C34         6.7610    2.2970    4.4780 c3        1 MOL     -0.304702
    100 H41         5.1890    1.9270    1.3010 hn        1 MOL      0.286024
    101 H42         4.9780    4.0240    3.3950 h1        1 MOL      0.076792
    102 H43         4.7330    2.4210    5.1380 hc        1 MOL     -0.050034
    103 H44         4.0390    0.4790    3.9430 hc        1 MOL      0.071739
    104 H45         5.6170    0.3560    3.1410 hc        1 MOL      0.071739
    105 H46         5.3790    0.1600    4.9510 hc        1 MOL      0.071739
    106 H47         6.9260    3.3550    4.2670 hc        1 MOL      0.071739
    107 H48         7.0900    2.0480    5.4810 hc        1 MOL      0.071739
    108 H49         7.3500    1.6190    3.8690 hc        1 MOL      0.071739
    109 N10         2.6620    2.6130    1.9920 n         1 MOL     -0.482553
    110 C35         1.2380    2.3390    1.8430 c3        1 MOL      0.414491
    111 C36         0.6310    3.1420    0.6990 c         1 MOL      0.488087
    112 O17         1.3590    3.7050   -0.1110 o         1 MOL     -0.524124
    113 C37         0.9640    0.8080    1.6890 c3        1 MOL     -0.248247
    114 C38         1.5460   -0.1330    2.7720 c         1 MOL      0.727887
    115 N11         1.1450   -0.0220    4.0100 n         1 MOL     -0.892369
    116 O18         2.4600   -0.8440    2.5740 o         1 MOL     -0.600340
    117 H50         3.2380    2.3460    1.2110 hn        1 MOL      0.256277
    118 H51         0.7890    2.7370    2.7400 h1        1 MOL     -0.054278
    119 H52         1.4210    0.5130    0.7440 hc        1 MOL      0.087634
    120 H53        -0.1030    0.5770    1.6890 hc        1 MOL      0.087634
    121 H54         0.4030    0.6380    4.2240 hn        1 MOL      0.389383
    122 H55         1.7180   -0.4930    4.6970 hn        1 MOL      0.389383
    123 N12        -0.6630    2.9750    0.5000 n         1 MOL     -0.498611
    124 C39        -1.4320    3.8640   -0.4600 c3        1 MOL      0.069972
    125 C40        -2.8740    4.1410    0.0640 c         1 MOL      0.628449
    126 O19        -3.3550    3.6120    1.0080 o         1 MOL     -0.569376
    127 C41        -1.3740    3.2170   -1.9140 c3        1 MOL     -0.237556
    128 C42        -2.4780    2.2240   -2.2520 ca        1 MOL     -0.021264
    129 C43        -2.5130    0.9680   -1.6110 ca        1 MOL     -0.082027
    130 C44        -3.5630    2.5590   -3.1640 ca        1 MOL     -0.082027
    131 C45        -3.4980    0.0130   -1.9430 ca        1 MOL     -0.309331
    132 C46        -4.5580    1.5610   -3.4870 ca        1 MOL     -0.309331
    133 C47        -4.4830    0.2830   -2.8830 ca        1 MOL      0.353276
    134 O20        -5.4490   -0.5650   -3.1160 oh        1 MOL     -0.605154
    135 H56        -1.1580    2.3560    1.1290 hn        1 MOL      0.271025
    136 H57        -0.8620    4.7820   -0.5930 h1        1 MOL      0.099379
    137 H58        -0.4620    2.6270   -2.0160 hc        1 MOL      0.107917
    138 H59        -1.5170    4.0650   -2.5900 hc        1 MOL      0.107917
    139 H60        -1.7310    0.8490   -0.8890 ha        1 MOL      0.110614
    140 H61        -3.5740    3.5180   -3.6510 ha        1 MOL      0.110614
    141 H62        -3.4650   -0.9520   -1.4590 ha        1 MOL      0.142368
    142 H63        -5.3680    1.7330   -4.1820 ha        1 MOL      0.142368
    143 H64        -5.3320   -1.4890   -2.8500 ho        1 MOL      0.559771
    144 N13        -3.5460    5.0390   -0.6800 n         1 MOL     -0.672254
    145 C48        -5.0060    5.3630   -0.4160 c3        1 MOL      0.453160
    146 C49        -5.9770    4.6780   -1.3820 c         1 MOL      0.247143
    147 O21        -6.1490    5.2130   -2.5310 o         1 MOL     -0.553698
    148 C50        -5.1010    6.8740   -0.3530 c3        1 MOL     -0.026095
    149 C51        -4.5770    7.5030    0.9510 c3        1 MOL     -0.100150
    150 C52        -4.9980    8.9700    0.9650 c         1 MOL      0.648495
    151 O22        -6.0430    9.3540    1.4850 o         1 MOL     -0.656649
    152 O23        -4.2560    9.7280    0.3110 o         1 MOL     -0.656649
    153 H65        -3.2010    5.4440   -1.5460 hn        1 MOL      0.358229
    154 H66        -5.2120    4.9470    0.5720 h1        1 MOL     -0.035852
    155 H67        -6.1890    6.9820   -0.4370 hc        1 MOL      0.012661
    156 H68        -4.6050    7.2230   -1.2580 hc        1 MOL      0.012661
    157 H69        -3.4960    7.3950    1.0190 hc        1 MOL     -0.000421
    158 H70        -5.0960    7.0170    1.7820 hc        1 MOL     -0.000421
    159 N14        -6.6180    3.5280   -1.1310 n         1 MOL     -0.172215
    160 C53        -6.6120    2.7610    0.1020 c3        1 MOL     -0.097334
    161 C54        -7.3250    3.3240    1.3210 c         1 MOL      0.471537
    162 O24        -8.4320    3.8070    1.2430 o         1 MOL     -0.527090
    163 C55        -7.2690    1.3580   -0.2360 c3        1 MOL     -0.099361
    164 C56        -6.4060    0.2800    0.4380 c3        1 MOL     -0.012698
    165 C57        -6.8890   -1.1620    0.0520 c         1 MOL      0.540845
    166 O25        -7.9520   -1.3960   -0.5620 o         1 MOL     -0.666310
    167 O26        -6.2550   -2.1770    0.3510 o         1 MOL     -0.666310
    168 H71        -7.3680    3.3230   -1.7800 hn        1 MOL      0.249890
    169 H72        -5.5750    2.5920    0.3880 h1        1 MOL      0.119548
    170 H73        -7.2560    1.1350   -1.3170 hc        1 MOL      0.048790
    171 H74        -8.3130    1.3170    0.0750 hc        1 MOL      0.048790
    172 H75        -6.3550    0.4350    1.5110 hc        1 MOL      0.030243
    173 H76        -5.3930    0.4090    0.0690 hc        1 MOL      0.030243
    174 N15        -6.6710    3.2860    2.5090 n         1 MOL     -0.231841
    175 C58        -6.9810    3.9470    3.8410 c3        1 MOL     -0.349787
    176 H77        -7.4340    4.9220    3.6650 h1        1 MOL      0.135222
    177 H78        -7.6730    3.3220    4.4050 h1        1 MOL      0.135222
    178 H79        -6.0590    4.0720    4.4080 h1        1 MOL      0.135222
    179 H80        -5.7890    2.8110    2.6360 hn        1 MOL      0.245510
    180 Ca1        -7.6500   -3.9540   -0.8990 Ca        1 MOL      1.700373
    181 O27        -8.2360   -6.4830   -1.2230 oh        1 MOL     -0.845107
    182 O28        -9.3830   -3.9380    1.1590 oh        1 MOL     -0.845107
    183 H81        -9.0030   -7.0450   -1.1080 ho        1 MOL      0.394860
    184 H82       -10.1310   -3.5360    0.7350 ho        1 MOL      0.394860
    185 H83        -7.5990   -7.0290   -1.6810 ho        1 MOL      0.394860
    186 H84        -9.7620   -4.6520    1.6810 ho        1 MOL      0.394860
    187 O29        -7.8470   -3.4820   -3.7460 oh        1 MOL     -0.845107
    188 H85        -7.3180   -4.1480   -4.1640 ho        1 MOL      0.394860
    189 H86        -8.4240   -3.1520   -4.4450 ho        1 MOL      0.394860
    190 O30       -10.1990   -3.8860   -1.5170 oh        1 MOL     -0.845107
    191 H87       -10.7490   -4.6210   -1.2570 ho        1 MOL      0.394860
    192 H88       -10.7850   -3.3090   -2.0020 ho        1 MOL      0.394860
@<TRIPOS>BOND
     1    1    2 1   
     2    1    4 1   
     3    1    5 1   
     4    1    6 1   
     5    2    3 2   
     6    2    7 1   
     7    7    8 1   
     8    7   15 1   
     9    8    9 1   
    10    8   11 1   
    11    8   16 1   
    12    9   10 2   
    13    9   19 1   
    14   11   12 1   
    15   11   17 1   
    16   11   18 1   
    17   12   13 1   
    18   12   14 1   
    19   19   20 1   
    20   19   27 1   
    21   20   21 1   
    22   20   23 1   
    23   20   28 1   
    24   21   22 2   
    25   21   38 1   
    26   23   24 1   
    27   23   25 1   
    28   23   29 1   
    29   24   26 1   
    30   24   30 1   
    31   24   31 1   
    32   25   32 1   
    33   25   33 1   
    34   25   34 1   
    35   26   35 1   
    36   26   36 1   
    37   26   37 1   
    38   38   39 1   
    39   38   46 1   
    40   39   40 1   
    41   39   42 1   
    42   39   47 1   
    43   40   41 2   
    44   40   50 1   
    45   42   43 1   
    46   42   48 1   
    47   42   49 1   
    48   43   44 1   
    49   43   45 1   
    50   50   51 1   
    51   50   54 1   
    52   51   52 1   
    53   51   55 1   
    54   51   56 1   
    55   52   53 2   
    56   52   57 1   
    57   57   58 1   
    58   57   65 1   
    59   58   59 1   
    60   58   61 1   
    61   58   66 1   
    62   59   60 2   
    63   59   69 1   
    64   61   62 1   
    65   61   67 1   
    66   61   68 1   
    67   62   63 1   
    68   62   64 1   
    69   69   70 1   
    70   69   73 1   
    71   70   71 1   
    72   70   74 1   
    73   70   75 1   
    74   71   72 2   
    75   71   76 1   
    76   76   77 1   
    77   76   85 1   
    78   77   78 1   
    79   77   80 1   
    80   77   86 1   
    81   78   79 2   
    82   78   93 1   
    83   80   81 1   
    84   80   87 1   
    85   80   88 1   
    86   81   82 1   
    87   81   89 1   
    88   81   90 1   
    89   82   83 1   
    90   82   84 2   
    91   83   91 1   
    92   83   92 1   
    93   93   94 1   
    94   93  100 1   
    95   94   95 1   
    96   94   97 1   
    97   94  101 1   
    98   95   96 2   
    99   95  109 1   
   100   97   98 1   
   101   97   99 1   
   102   97  102 1   
   103   98  103 1   
   104   98  104 1   
   105   98  105 1   
   106   99  106 1   
   107   99  107 1   
   108   99  108 1   
   109  109  110 1   
   110  109  117 1   
   111  110  111 1   
   112  110  113 1   
   113  110  118 1   
   114  111  112 2   
   115  111  123 1   
   116  113  114 1   
   117  113  119 1   
   118  113  120 1   
   119  114  115 1   
   120  114  116 2   
   121  115  121 1   
   122  115  122 1   
   123  123  124 1   
   124  123  135 1   
   125  124  125 1   
   126  124  127 1   
   127  124  136 1   
   128  125  126 2   
   129  125  144 1   
   130  127  128 1   
   131  127  137 1   
   132  127  138 1   
   133  128  129 ar  
   134  128  130 ar  
   135  129  131 ar  
   136  129  139 1   
   137  130  132 ar  
   138  130  140 1   
   139  131  133 ar  
   140  131  141 1   
   141  132  133 ar  
   142  132  142 1   
   143  133  134 1   
   144  134  143 1   
   145  144  145 1   
   146  144  153 1   
   147  145  146 1   
   148  145  148 1   
   149  145  154 1   
   150  146  147 2   
   151  146  159 1   
   152  148  149 1   
   153  148  155 1   
   154  148  156 1   
   155  149  150 1   
   156  149  157 1   
   157  149  158 1   
   158  150  151 1   
   159  150  152 1   
   160  159  160 1   
   161  159  168 1   
   162  160  161 1   
   163  160  163 1   
   164  160  169 1   
   165  161  162 2   
   166  161  174 1   
   167  163  164 1   
   168  163  170 1   
   169  163  171 1   
   170  164  165 1   
   171  164  172 1   
   172  164  173 1   
   173  165  166 1   
   174  165  167 1   
   175  174  175 1   
   176  174  179 1   
   177  175  176 1   
   178  175  177 1   
   179  175  178 1   
   180  181  183 1   
   181  181  185 1   
   182  182  184 1   
   183  182  186 1   
   184  187  188 1   
   185  187  189 1   
   186  190  191 1   
   187  190  192 1   
@<TRIPOS>SUBSTRUCTURE
     1 MOL         1 TEMP              0 ****  ****    0 ROOT
