@<TRIPOS>MOLECULE
MOL
  189   185     1     0     0
SMALL
resp


@<TRIPOS>ATOM
      1 C1          5.4670    4.7350   -3.1170 c3        1 MOL     -0.414178
      2 C2          5.8100    3.4130   -2.3270 c         1 MOL      0.702320
      3 O1          4.9960    2.8750   -1.5650 o         1 MOL     -0.567196
      4 H1          5.1010    4.4790   -4.1110 hc        1 MOL      0.115767
      5 H2          4.6980    5.2900   -2.5800 hc        1 MOL      0.115767
      6 H3          6.3630    5.3480   -3.2060 hc        1 MOL      0.115767
      7 N1          6.9970    2.8910   -2.5010 n         1 MOL     -0.664901
      8 C3          7.6850    1.6550   -1.9460 c3        1 MOL      0.136999
      9 C4          6.7020    0.5280   -1.6770 c         1 MOL      0.372136
     10 O2          6.1830    0.3250   -0.5630 o         1 MOL     -0.609002
     11 C5          8.6460    2.0030   -0.7640 c3        1 MOL     -0.078119
     12 C6          8.2670    3.1950    0.0960 c         1 MOL      0.696150
     13 O3          7.0700    3.3640    0.5230 o         1 MOL     -0.704515
     14 O4          9.2260    3.8400    0.6410 o         1 MOL     -0.704515
     15 H4          7.5610    3.3730   -3.1810 hn        1 MOL      0.344556
     16 H5          8.3410    1.2680   -2.7170 h1        1 MOL      0.046284
     17 H6          9.5950    2.2560   -1.2300 hc        1 MOL      0.027479
     18 H7          8.9530    1.1290   -0.1910 hc        1 MOL      0.027479
     19 N2          6.2950   -0.2160   -2.6900 n         1 MOL     -0.477573
     20 C7          5.4550   -1.4340   -2.8320 c3        1 MOL      0.215409
     21 C8          5.8340   -2.7020   -2.0130 c         1 MOL      0.310748
     22 O5          5.9980   -3.7680   -2.6070 o         1 MOL     -0.544464
     23 C9          3.9660   -1.0470   -2.5830 c3        1 MOL      0.312410
     24 C10         2.8630   -2.0260   -3.1090 c3        1 MOL     -0.212826
     25 C11         3.4560    0.2830   -3.2260 c3        1 MOL     -0.384897
     26 C12         2.9880   -2.5570   -4.5280 c3        1 MOL     -0.088620
     27 H8          6.6480    0.1690   -3.5600 hn        1 MOL      0.273084
     28 H9          5.5640   -1.7590   -3.8750 h1        1 MOL      0.005923
     29 H10         3.7920   -0.7980   -1.5350 hc        1 MOL     -0.056564
     30 H11         1.8680   -1.6200   -2.8980 hc        1 MOL      0.084514
     31 H12         2.8350   -2.9650   -2.5510 hc        1 MOL      0.084514
     32 H13         3.3290    0.1280   -4.3050 hc        1 MOL      0.078770
     33 H14         2.6020    0.6520   -2.6690 hc        1 MOL      0.078770
     34 H15         4.1780    1.0880   -3.1590 hc        1 MOL      0.078770
     35 H16         2.0120   -2.9520   -4.8400 hc        1 MOL      0.014069
     36 H17         3.1790   -1.7110   -5.1890 hc        1 MOL      0.014069
     37 H18         3.7400   -3.3500   -4.5980 hc        1 MOL      0.014069
     38 N3          6.0900   -2.5790   -0.7250 n         1 MOL     -0.070392
     39 C13         6.5330   -3.7290    0.0930 c3        1 MOL     -0.188672
     40 C14         5.4760   -4.8020    0.3100 c         1 MOL      0.844756
     41 O6          5.7440   -5.9930    0.1790 o         1 MOL     -0.597438
     42 C15         7.0320   -3.1780    1.5340 c3        1 MOL     -0.069317
     43 C16         7.8280   -4.2070    2.3240 c         1 MOL      0.601328
     44 O7          8.9390   -4.5990    1.8690 o         1 MOL     -0.700822
     45 O8          7.1970   -4.6280    3.3160 o         1 MOL     -0.700822
     46 H19         5.9610   -1.7000   -0.2550 hn        1 MOL      0.249601
     47 H20         7.3220   -4.2630   -0.4270 h1        1 MOL      0.080752
     48 H21         6.2920   -2.7140    2.1870 hc        1 MOL      0.025026
     49 H22         7.6760   -2.3390    1.2520 hc        1 MOL      0.025026
     50 N4          4.1820   -4.5080    0.6270 n         1 MOL     -0.758338
     51 C17         3.4640   -3.2260    0.9750 c3        1 MOL      0.186233
     52 C18         2.0900   -3.5590    1.6040 c         1 MOL      0.817784
     53 O9          1.5230   -4.6060    1.3580 o         1 MOL     -0.596685
     54 H23         3.5940   -5.3000    0.8280 hn        1 MOL      0.315183
     55 H24         3.2830   -2.5720    0.1130 h1        1 MOL      0.040053
     56 H25         4.0520   -2.6780    1.7070 h1        1 MOL      0.040053
     57 N5          1.4240   -2.5930    2.3570 n         1 MOL     -0.679204
     58 C19         1.8780   -1.1730    2.5850 c3        1 MOL      0.016102
     59 C20         2.3390   -0.3790    1.3310 c         1 MOL      0.350160
     60 O10         3.5120   -0.0560    1.2800 o         1 MOL     -0.495773
     61 C21         2.7750   -1.0100    3.8590 c3        1 MOL     -0.367673
     62 C22         2.3950   -2.1160    4.9200 c         1 MOL      0.710383
     63 O11         3.1710   -3.1130    5.1140 o         1 MOL     -0.691852
     64 O12         1.3900   -2.0170    5.6680 o         1 MOL     -0.691852
     65 H26         0.4620   -2.7420    2.6270 hn        1 MOL      0.361939
     66 H27         0.9740   -0.6730    2.9360 h1        1 MOL      0.125291
     67 H28         2.4760   -0.0480    4.2480 hc        1 MOL      0.089426
     68 H29         3.8360   -1.0490    3.6020 hc        1 MOL      0.089426
     69 N6          1.4960   -0.0140    0.3370 n         1 MOL     -0.327810
     70 C23         0.1070   -0.4180    0.3860 c3        1 MOL     -0.023150
     71 C24        -0.1710   -1.8910   -0.1020 c         1 MOL      0.746682
     72 O13         0.5020   -2.4150   -0.9350 o         1 MOL     -0.539757
     73 H30         1.8850    0.6290   -0.3410 hn        1 MOL      0.254654
     74 H31        -0.5340    0.1640   -0.2760 h1        1 MOL      0.026398
     75 H32        -0.1810   -0.2860    1.4250 h1        1 MOL      0.026398
     76 N7         -1.2420   -2.5240    0.3750 n         1 MOL     -0.596840
     77 C25        -1.5580   -3.8860    0.0360 c3        1 MOL     -0.005564
     78 C26        -2.3090   -4.1090   -1.3500 c         1 MOL      0.362787
     79 O14        -2.3480   -5.1950   -1.9250 o         1 MOL     -0.513859
     80 C27        -2.0860   -4.7480    1.1600 c3        1 MOL      0.092845
     81 C28        -3.2430   -4.1650    1.8900 c3        1 MOL      0.173363
     82 C29        -4.4040   -3.8270    0.9700 c         1 MOL      0.427671
     83 N8         -5.2060   -4.7670    0.5890 n         1 MOL     -0.572877
     84 O15        -4.6880   -2.7070    0.5200 o         1 MOL     -0.553106
     85 H33        -1.8610   -2.1880    1.1040 hn        1 MOL      0.276631
     86 H34        -0.6230   -4.4260   -0.1590 h1        1 MOL      0.121709
     87 H35        -1.2680   -4.9370    1.8460 hc        1 MOL     -0.010482
     88 H36        -2.4170   -5.7080    0.7680 hc        1 MOL     -0.010482
     89 H37        -3.0040   -3.3140    2.5310 hc        1 MOL     -0.025413
     90 H38        -3.5200   -4.9050    2.6470 hc        1 MOL     -0.025413
     91 H39        -5.0140   -5.7260    0.8660 hn        1 MOL      0.314426
     92 H40        -6.0220   -4.5430    0.0440 hn        1 MOL      0.314426
     93 N9         -3.0100   -3.0640   -1.7630 n         1 MOL     -0.148210
     94 C30        -3.5730   -2.8470   -3.1500 c3        1 MOL     -0.171562
     95 C31        -4.9020   -2.1050   -3.2210 c         1 MOL      0.491933
     96 O16        -5.4030   -1.8400   -4.3150 o         1 MOL     -0.584166
     97 C32        -2.5720   -2.1560   -4.0310 c3        1 MOL      0.147825
     98 C33        -1.3900   -3.1220   -4.4670 c3        1 MOL     -0.233033
     99 C34        -1.9800   -0.9170   -3.3400 c3        1 MOL     -0.233033
    100 H41        -3.0570   -2.2590   -1.1520 hn        1 MOL      0.197343
    101 H42        -3.7700   -3.8440   -3.5490 h1        1 MOL      0.127116
    102 H43        -3.0560   -1.8390   -4.9560 hc        1 MOL      0.014534
    103 H44        -0.6110   -2.6530   -5.0710 hc        1 MOL      0.064001
    104 H45        -0.9030   -3.5990   -3.6120 hc        1 MOL      0.064001
    105 H46        -1.7590   -3.9680   -5.0390 hc        1 MOL      0.064001
    106 H47        -1.3920   -1.2970   -2.4950 hc        1 MOL      0.064001
    107 H48        -1.3300   -0.3650   -4.0280 hc        1 MOL      0.064001
    108 H49        -2.7520   -0.2550   -2.9430 hc        1 MOL      0.064001
    109 N10        -5.4560   -1.7090   -2.1400 n         1 MOL     -0.189279
    110 C35        -6.7880   -1.0840   -2.0510 c3        1 MOL     -0.006699
    111 C36        -6.7680    0.2960   -1.3660 c         1 MOL      0.575246
    112 O17        -7.7290    1.0470   -1.5720 o         1 MOL     -0.554079
    113 C37        -7.7130   -2.0610   -1.2050 c3        1 MOL     -0.363218
    114 C38        -7.8830   -3.4480   -1.7810 c         1 MOL      0.660458
    115 N11        -8.5450   -3.5110   -2.9390 n         1 MOL     -0.775776
    116 O18        -7.4960   -4.4070   -1.1570 o         1 MOL     -0.546138
    117 H50        -5.0130   -1.9730   -1.2680 hn        1 MOL      0.160417
    118 H51        -7.2570   -0.9350   -3.0180 h1        1 MOL      0.092269
    119 H52        -8.7250   -1.6530   -1.2160 hc        1 MOL      0.145801
    120 H53        -7.3030   -2.1090   -0.1990 hc        1 MOL      0.145801
    121 H54        -8.7780   -2.6080   -3.3330 hn        1 MOL      0.375101
    122 H55        -8.7870   -4.4160   -3.3230 hn        1 MOL      0.375101
    123 N12        -5.7810    0.6930   -0.4670 n         1 MOL     -0.595088
    124 C39        -5.8830    1.8930    0.4000 c3        1 MOL      0.490733
    125 C40        -4.6270    2.7200    0.4490 c         1 MOL      0.272420
    126 O19        -3.5210    2.2760    0.2740 o         1 MOL     -0.484555
    127 C41        -6.2300    1.3380    1.8360 c3        1 MOL     -0.111852
    128 C42        -7.5580    0.5850    1.9770 ca        1 MOL     -0.028064
    129 C43        -8.6810    1.3320    2.0410 ca        1 MOL     -0.077507
    130 C44        -7.5900   -0.7730    2.0050 ca        1 MOL     -0.077507
    131 C45        -9.9110    0.6610    2.0920 ca        1 MOL     -0.245084
    132 C46        -8.7980   -1.4680    1.9930 ca        1 MOL     -0.245084
    133 C47        -9.9320   -0.7280    2.0980 ca        1 MOL      0.339916
    134 O20       -11.1220   -1.4310    2.1460 oh        1 MOL     -0.544764
    135 H56        -5.0950   -0.0030   -0.2010 hn        1 MOL      0.255694
    136 H57        -6.7510    2.4690    0.0830 h1        1 MOL     -0.040783
    137 H58        -6.2720    2.1270    2.5800 hc        1 MOL      0.074196
    138 H59        -5.4210    0.6730    2.1420 hc        1 MOL      0.074196
    139 H60        -8.5750    2.4020    1.9780 ha        1 MOL      0.095625
    140 H61        -6.7430   -1.3970    1.7380 ha        1 MOL      0.095625
    141 H62       -10.8310    1.2340    2.0960 ha        1 MOL      0.115584
    142 H63        -8.8400   -2.5390    1.8730 ha        1 MOL      0.115584
    143 H64       -11.9450   -0.9470    2.1040 ho        1 MOL      0.374514
    144 N13        -4.7600    3.9680    0.8220 n         1 MOL     -0.523720
    145 C48        -3.8460    5.0270    1.4050 c3        1 MOL      0.003317
    146 C49        -2.5440    5.3660    0.7370 c         1 MOL      0.643367
    147 O21        -1.9050    6.3360    1.1230 o         1 MOL     -0.546290
    148 C50        -3.6250    4.8100    2.9510 c3        1 MOL     -0.033890
    149 C51        -2.9730    3.4820    3.3130 c3        1 MOL     -0.071095
    150 C52        -2.5660    3.4560    4.7550 c         1 MOL      0.676618
    151 O22        -3.4920    3.3020    5.5880 o         1 MOL     -0.730219
    152 O23        -1.3890    3.6130    5.1120 o         1 MOL     -0.730219
    153 H65        -5.7350    4.1450    0.9790 hn        1 MOL      0.307065
    154 H66        -4.4280    5.9350    1.2680 h1        1 MOL      0.044584
    155 H67        -4.6250    4.8990    3.3540 hc        1 MOL      0.025152
    156 H68        -2.9760    5.6420    3.2430 hc        1 MOL      0.025152
    157 H69        -2.1000    3.3030    2.6780 hc        1 MOL      0.004347
    158 H70        -3.8220    2.7930    3.3150 hc        1 MOL      0.004347
    159 N14        -2.3170    4.7760   -0.4500 n         1 MOL     -0.720788
    160 C53        -1.1810    5.1850   -1.3650 c3        1 MOL      0.038342
    161 C54        -1.6710    5.9940   -2.5120 c         1 MOL      0.476932
    162 O24        -0.8850    6.5070   -3.2290 o         1 MOL     -0.523215
    163 C55        -0.6340    3.8470   -1.7190 c3        1 MOL      0.090561
    164 C56         0.1290    2.9350   -0.7130 c3        1 MOL      0.499018
    165 C57         1.4900    3.5180   -0.2350 c         1 MOL      0.595182
    166 O25         2.4280    2.7050    0.0870 o         1 MOL     -0.708669
    167 O26         1.8320    4.6790   -0.4520 o         1 MOL     -0.708669
    168 H71        -2.8970    3.9790   -0.6670 hn        1 MOL      0.435521
    169 H72        -0.4620    5.8520   -0.8800 h1        1 MOL      0.143442
    170 H73         0.0960    3.9930   -2.5280 hc        1 MOL     -0.060555
    171 H74        -1.4180    3.2170   -2.1460 hc        1 MOL     -0.060555
    172 H75         0.3290    1.9940   -1.2300 hc        1 MOL     -0.149079
    173 H76        -0.5170    2.7310    0.1360 hc        1 MOL     -0.149079
    174 N15        -2.9760    6.0330   -2.7820 n         1 MOL     -0.208696
    175 C58        -3.6680    6.6530   -3.8980 c3        1 MOL     -0.239281
    176 H77        -3.1710    6.3810   -4.8290 h1        1 MOL      0.094142
    177 H78        -4.7010    6.3060   -3.9240 h1        1 MOL      0.094142
    178 H79        -3.6500    7.7360   -3.7810 h1        1 MOL      0.094142
    179 H80        -3.6320    5.4680   -2.2700 hn        1 MOL      0.200637
    180 Ca1         4.7740    2.2800    0.9410 Ca        1 MOL      1.788510
    181 O27         6.1540    1.4980    3.0450 oh        1 MOL     -0.962214
    182 H81         5.5890    1.0720    3.6920 ho        1 MOL      0.462202
    183 H82         6.9420    1.7320    3.5270 ho        1 MOL      0.462202
    184 O28         3.0780    2.8760    3.0470 oh        1 MOL     -0.962214
    185 H83         2.2300    2.4760    2.8680 ho        1 MOL      0.462202
    186 H84         2.9510    3.3700    3.8640 ho        1 MOL      0.462202
    187 O29         4.2240    4.9940    0.6120 oh        1 MOL     -0.962214
    188 H85         3.3650    4.8100    0.2370 ho        1 MOL      0.462202
    189 H86         4.0740    5.7100    1.2360 ho        1 MOL      0.462202
@<TRIPOS>BOND
     1    1    2 1   
     2    1    4 1   
     3    1    5 1   
     4    1    6 1   
     5    2    3 2   
     6    2    7 1   
     7    7    8 1   
     8    7   15 1   
     9    8    9 1   
    10    8   11 1   
    11    8   16 1   
    12    9   10 2   
    13    9   19 1   
    14   11   12 1   
    15   11   17 1   
    16   11   18 1   
    17   12   13 1   
    18   12   14 1   
    19   19   20 1   
    20   19   27 1   
    21   20   21 1   
    22   20   23 1   
    23   20   28 1   
    24   21   22 2   
    25   21   38 1   
    26   23   24 1   
    27   23   25 1   
    28   23   29 1   
    29   24   26 1   
    30   24   30 1   
    31   24   31 1   
    32   25   32 1   
    33   25   33 1   
    34   25   34 1   
    35   26   35 1   
    36   26   36 1   
    37   26   37 1   
    38   38   39 1   
    39   38   46 1   
    40   39   40 1   
    41   39   42 1   
    42   39   47 1   
    43   40   41 2   
    44   40   50 1   
    45   42   43 1   
    46   42   48 1   
    47   42   49 1   
    48   43   44 1   
    49   43   45 1   
    50   50   51 1   
    51   50   54 1   
    52   51   52 1   
    53   51   55 1   
    54   51   56 1   
    55   52   53 2   
    56   52   57 1   
    57   57   58 1   
    58   57   65 1   
    59   58   59 1   
    60   58   61 1   
    61   58   66 1   
    62   59   60 2   
    63   59   69 1   
    64   61   62 1   
    65   61   67 1   
    66   61   68 1   
    67   62   63 1   
    68   62   64 1   
    69   69   70 1   
    70   69   73 1   
    71   70   71 1   
    72   70   74 1   
    73   70   75 1   
    74   71   72 2   
    75   71   76 1   
    76   76   77 1   
    77   76   85 1   
    78   77   78 1   
    79   77   80 1   
    80   77   86 1   
    81   78   79 2   
    82   78   93 1   
    83   80   81 1   
    84   80   87 1   
    85   80   88 1   
    86   81   82 1   
    87   81   89 1   
    88   81   90 1   
    89   82   83 1   
    90   82   84 2   
    91   83   91 1   
    92   83   92 1   
    93   93   94 1   
    94   93  100 1   
    95   94   95 1   
    96   94   97 1   
    97   94  101 1   
    98   95   96 2   
    99   95  109 1   
   100   97   98 1   
   101   97   99 1   
   102   97  102 1   
   103   98  103 1   
   104   98  104 1   
   105   98  105 1   
   106   99  106 1   
   107   99  107 1   
   108   99  108 1   
   109  109  110 1   
   110  109  117 1   
   111  110  111 1   
   112  110  113 1   
   113  110  118 1   
   114  111  112 2   
   115  111  123 1   
   116  113  114 1   
   117  113  119 1   
   118  113  120 1   
   119  114  115 1   
   120  114  116 2   
   121  115  121 1   
   122  115  122 1   
   123  123  124 1   
   124  123  135 1   
   125  124  125 1   
   126  124  127 1   
   127  124  136 1   
   128  125  126 2   
   129  125  144 1   
   130  127  128 1   
   131  127  137 1   
   132  127  138 1   
   133  128  129 ar  
   134  128  130 ar  
   135  129  131 ar  
   136  129  139 1   
   137  130  132 ar  
   138  130  140 1   
   139  131  133 ar  
   140  131  141 1   
   141  132  133 ar  
   142  132  142 1   
   143  133  134 1   
   144  134  143 1   
   145  144  145 1   
   146  144  153 1   
   147  145  146 1   
   148  145  148 1   
   149  145  154 1   
   150  146  147 2   
   151  146  159 1   
   152  148  149 1   
   153  148  155 1   
   154  148  156 1   
   155  149  150 1   
   156  149  157 1   
   157  149  158 1   
   158  150  151 1   
   159  150  152 1   
   160  159  160 1   
   161  159  168 1   
   162  160  161 1   
   163  160  163 1   
   164  160  169 1   
   165  161  162 2   
   166  161  174 1   
   167  163  164 1   
   168  163  170 1   
   169  163  171 1   
   170  164  165 1   
   171  164  172 1   
   172  164  173 1   
   173  165  166 1   
   174  165  167 1   
   175  174  175 1   
   176  174  179 1   
   177  175  176 1   
   178  175  177 1   
   179  175  178 1   
   180  181  182 1   
   181  181  183 1   
   182  184  185 1   
   183  184  186 1   
   184  187  188 1   
   185  187  189 1   
@<TRIPOS>SUBSTRUCTURE
     1 MOL         1 TEMP              0 ****  ****    0 ROOT
