@<TRIPOS>MOLECULE
MOL
  192   187     1     0     0
SMALL
resp


@<TRIPOS>ATOM
      1 C1         -0.5670   -4.2870    3.2330 c3        1 MOL     -0.467984
      2 C2          0.3560   -4.2580    1.9830 c         1 MOL      0.592424
      3 O1          1.1910   -3.3440    1.9220 o         1 MOL     -0.521229
      4 H1         -0.6500   -5.3110    3.5990 hc        1 MOL      0.118379
      5 H2         -0.1420   -3.6560    4.0140 hc        1 MOL      0.118379
      6 H3         -1.5550   -3.9170    2.9640 hc        1 MOL      0.118379
      7 N1          0.2010   -5.1250    1.0070 n         1 MOL     -0.371423
      8 C3          0.7470   -5.0610   -0.3890 c3        1 MOL     -0.267377
      9 C4          2.2540   -4.7040   -0.4760 c         1 MOL      0.731702
     10 O2          2.7810   -3.9660   -1.3130 o         1 MOL     -0.520233
     11 C5         -0.0150   -4.1720   -1.3330 c3        1 MOL     -0.022246
     12 C6         -1.5220   -4.3510   -1.1770 c         1 MOL      0.733470
     13 O3         -2.1010   -5.3330   -1.6980 o         1 MOL     -0.747039
     14 O4         -2.0860   -3.4770   -0.4740 o         1 MOL     -0.747039
     15 H4         -0.4620   -5.8800    1.1370 hn        1 MOL      0.232969
     16 H5          0.6450   -6.0540   -0.8240 h1        1 MOL      0.146811
     17 H6          0.2790   -4.4910   -2.3360 hc        1 MOL      0.030080
     18 H7          0.2480   -3.1130   -1.2690 hc        1 MOL      0.030080
     19 N2          2.9820   -5.2090    0.5380 n         1 MOL     -0.645342
     20 C7          4.4420   -5.1290    0.6630 c3        1 MOL      0.218665
     21 C8          5.2090   -5.8970   -0.4630 c         1 MOL      0.428514
     22 O5          4.6610   -6.8050   -1.1040 o         1 MOL     -0.576392
     23 C9          4.9110   -5.5360    2.0990 c3        1 MOL     -0.003187
     24 C10         4.4190   -6.9000    2.5590 c3        1 MOL      0.077730
     25 C11         4.5380   -4.5170    3.0900 c3        1 MOL     -0.062533
     26 C12         5.3630   -7.9860    2.1620 c3        1 MOL     -0.069703
     27 H8          2.5330   -5.4600    1.4140 hn        1 MOL      0.320228
     28 H9          4.6020   -4.0620    0.5480 h1        1 MOL      0.063508
     29 H10         5.9950   -5.5350    2.1880 hc        1 MOL      0.092050
     30 H11         3.3630   -7.1290    2.3810 hc        1 MOL     -0.038616
     31 H12         4.4650   -6.8860    3.6480 hc        1 MOL     -0.038616
     32 H13         4.8280   -3.4990    2.8640 hc        1 MOL      0.015203
     33 H14         3.4510   -4.5370    3.1920 hc        1 MOL      0.015203
     34 H15         4.8990   -4.7400    4.0970 hc        1 MOL      0.015203
     35 H16         5.1610   -8.9550    2.6170 hc        1 MOL      0.007614
     36 H17         5.4130   -8.1000    1.0720 hc        1 MOL      0.007614
     37 H18         6.3750   -7.8060    2.5110 hc        1 MOL      0.007614
     38 N3          6.3860   -5.5200   -0.8260 n         1 MOL     -0.425011
     39 C13         7.1080   -4.2890   -0.4680 c3        1 MOL     -0.006255
     40 C14         6.6730   -2.9610   -1.0170 c         1 MOL      0.663127
     41 O6          6.9210   -1.9360   -0.4230 o         1 MOL     -0.465105
     42 C15         8.6350   -4.5430   -0.7530 c3        1 MOL     -0.070524
     43 C16         9.5260   -3.3400   -0.2960 c         1 MOL      0.582994
     44 O7         10.2420   -2.8120   -1.1850 o         1 MOL     -0.676380
     45 O8          9.3730   -2.8620    0.8440 o         1 MOL     -0.676380
     46 H19         6.7910   -6.0780   -1.5690 hn        1 MOL      0.291850
     47 H20         7.0520   -4.1210    0.6020 h1        1 MOL     -0.024526
     48 H21         8.7950   -4.7100   -1.8240 hc        1 MOL     -0.013334
     49 H22         9.0230   -5.4530   -0.2840 hc        1 MOL     -0.013334
     50 N4          6.0110   -2.8710   -2.1910 n         1 MOL     -0.462621
     51 C17         5.2030   -1.7170   -2.7760 c3        1 MOL     -0.263955
     52 C18         6.1090   -0.5120   -3.0890 c         1 MOL      0.608861
     53 O9          7.3130   -0.5800   -3.5420 o         1 MOL     -0.521351
     54 H23         5.8440   -3.7620   -2.6360 hn        1 MOL      0.290993
     55 H24         4.5250   -1.4230   -1.9800 h1        1 MOL      0.135324
     56 H25         4.6390   -1.9860   -3.6690 h1        1 MOL      0.135324
     57 N5          5.5090    0.6100   -2.7160 n         1 MOL     -0.555111
     58 C19         6.0310    1.9350   -3.1360 c3        1 MOL      0.203753
     59 C20         6.5120    2.8440   -1.9540 c         1 MOL      0.386022
     60 O10         7.0830    3.8960   -2.2130 o         1 MOL     -0.537197
     61 C21         4.9350    2.8490   -3.8270 c3        1 MOL     -0.348255
     62 C22         3.6040    2.8300   -3.1230 c         1 MOL      0.811179
     63 O11         2.6340    2.1080   -3.4810 o         1 MOL     -0.733453
     64 O12         3.4360    3.4780   -2.1130 o         1 MOL     -0.733453
     65 H26         4.6010    0.6240   -2.2770 hn        1 MOL      0.322271
     66 H27         6.8410    1.8430   -3.8540 h1        1 MOL      0.071499
     67 H28         4.7730    2.6090   -4.8750 hc        1 MOL      0.062028
     68 H29         5.2840    3.8830   -3.8240 hc        1 MOL      0.062028
     69 N6          6.2350    2.4530   -0.6790 n         1 MOL     -0.198588
     70 C23         6.6740    3.1050    0.5840 c3        1 MOL     -0.189876
     71 C24         5.9690    4.4020    0.9470 c         1 MOL      0.379135
     72 O13         6.4930    5.2240    1.7190 o         1 MOL     -0.530595
     73 H30         5.7790    1.5540   -0.6720 hn        1 MOL      0.203721
     74 H31         7.7590    3.1880    0.5720 h1        1 MOL      0.125419
     75 H32         6.4460    2.3950    1.3890 h1        1 MOL      0.125419
     76 N7          4.8200    4.6660    0.2390 n         1 MOL      0.002482
     77 C25         3.9210    5.7270    0.5250 c3        1 MOL      0.057691
     78 C26         3.3390    5.7160    2.0010 c         1 MOL      0.290313
     79 O14         2.8530    6.7230    2.5330 o         1 MOL     -0.491277
     80 C27         4.5030    7.0770    0.1240 c3        1 MOL     -0.149764
     81 C28         4.7960    7.1700   -1.3790 c3        1 MOL     -0.054662
     82 C29         4.8390    8.5690   -1.9740 c         1 MOL      0.530161
     83 N8          5.9710    8.9060   -2.5370 n         1 MOL     -0.696249
     84 O15         3.8210    9.2990   -2.0250 o         1 MOL     -0.557646
     85 H33         4.4480    4.1230   -0.5360 hn        1 MOL      0.106229
     86 H34         3.1290    5.5650   -0.2060 h1        1 MOL      0.102306
     87 H35         5.4490    7.3480    0.5940 hc        1 MOL      0.049617
     88 H36         3.7350    7.8390    0.2700 hc        1 MOL      0.049617
     89 H37         4.1880    6.4470   -1.9200 hc        1 MOL      0.056892
     90 H38         5.7420    6.6680   -1.5970 hc        1 MOL      0.056892
     91 H39         6.7670    8.3040   -2.3930 hn        1 MOL      0.327048
     92 H40         6.0320    9.9180   -2.6410 hn        1 MOL      0.327048
     93 N9          3.3200    4.5080    2.6150 n         1 MOL     -0.101321
     94 C30         2.6620    4.1330    3.8930 c3        1 MOL     -0.135804
     95 C31         1.4230    3.2290    3.7390 c         1 MOL      0.470326
     96 O16         0.8480    2.9320    4.8160 o         1 MOL     -0.561340
     97 C32         3.6800    3.5130    4.9040 c3        1 MOL      0.419447
     98 C33         4.3140    2.2250    4.3620 c3        1 MOL     -0.267287
     99 C34         4.7490    4.4990    5.3700 c3        1 MOL     -0.267287
    100 H41         3.5780    3.8360    1.9040 hn        1 MOL      0.097060
    101 H42         2.2420    5.0470    4.3150 h1        1 MOL      0.093390
    102 H43         3.1130    3.2130    5.7910 hc        1 MOL     -0.075872
    103 H44         5.1590    2.5080    3.7420 hc        1 MOL      0.048174
    104 H45         4.8160    1.7730    5.2180 hc        1 MOL      0.048174
    105 H46         3.5680    1.6040    3.8710 hc        1 MOL      0.048174
    106 H47         5.3570    4.0900    6.1850 hc        1 MOL      0.048174
    107 H48         5.4220    4.8420    4.5820 hc        1 MOL      0.048174
    108 H49         4.1830    5.3410    5.7740 hc        1 MOL      0.048174
    109 N10         1.0160    2.7560    2.5950 n         1 MOL     -0.317120
    110 C35        -0.1330    1.8470    2.3290 c3        1 MOL      0.224966
    111 C36        -0.8730    2.1760    0.9560 c         1 MOL      0.365010
    112 O17        -0.2770    2.7590    0.0680 o         1 MOL     -0.449739
    113 C37         0.3630    0.4240    2.2690 c3        1 MOL     -0.275679
    114 C38        -0.7040   -0.6340    1.9330 c         1 MOL      0.588379
    115 N11        -0.5710   -1.2520    0.7730 n         1 MOL     -0.726875
    116 O18        -1.7120   -0.7980    2.6440 o         1 MOL     -0.541829
    117 H50         1.4790    3.0550    1.7490 hn        1 MOL      0.204914
    118 H51        -0.7910    1.9160    3.1960 h1        1 MOL      0.029486
    119 H52         0.6760    0.0690    3.2560 hc        1 MOL      0.098839
    120 H53         1.2130    0.3630    1.5900 hc        1 MOL      0.098839
    121 H54         0.2570   -1.2130    0.1950 hn        1 MOL      0.392359
    122 H55        -1.2790   -1.8930    0.4430 hn        1 MOL      0.392359
    123 N12        -2.1430    1.7810    0.9010 n         1 MOL     -0.386402
    124 C39        -3.1040    2.1970   -0.1110 c3        1 MOL      0.129306
    125 C40        -4.5280    2.2970    0.3240 c         1 MOL      0.642782
    126 O19        -4.8700    1.8300    1.4790 o         1 MOL     -0.608538
    127 C41        -2.9940    1.1380   -1.3090 c3        1 MOL     -0.085949
    128 C42        -4.0240    1.2100   -2.3480 ca        1 MOL     -0.041199
    129 C43        -5.0510    0.2140   -2.5040 ca        1 MOL     -0.098725
    130 C44        -4.0000    2.3000   -3.3120 ca        1 MOL     -0.098725
    131 C45        -6.0610    0.3520   -3.4940 ca        1 MOL     -0.277001
    132 C46        -5.0650    2.4650   -4.2210 ca        1 MOL     -0.277001
    133 C47        -6.0710    1.5370   -4.2580 ca        1 MOL      0.272372
    134 O20        -7.1420    1.8190   -5.0970 oh        1 MOL     -0.482911
    135 H56        -2.5600    1.2810    1.6770 hn        1 MOL      0.240280
    136 H57        -2.9160    3.1910   -0.5060 h1        1 MOL      0.055786
    137 H58        -3.0230    0.1510   -0.8350 hc        1 MOL      0.063509
    138 H59        -2.0340    1.1300   -1.8390 hc        1 MOL      0.063509
    139 H60        -4.9390   -0.7200   -1.9720 ha        1 MOL      0.119876
    140 H61        -3.2260    3.0350   -3.1820 ha        1 MOL      0.119876
    141 H62        -6.7530   -0.4590   -3.6540 ha        1 MOL      0.172197
    142 H63        -5.1230    3.3310   -4.8530 ha        1 MOL      0.172197
    143 H64        -7.7820    1.1090   -4.9790 ho        1 MOL      0.349932
    144 N13        -5.4160    2.8910   -0.4490 n         1 MOL     -0.774211
    145 C48        -6.8290    2.9560   -0.0240 c3        1 MOL      0.378584
    146 C49        -7.7890    2.4040   -1.1020 c         1 MOL      0.549487
    147 O21        -8.1440    3.0100   -2.0500 o         1 MOL     -0.498769
    148 C50        -7.1690    4.4400    0.3350 c3        1 MOL     -0.063241
    149 C51        -8.2320    4.5760    1.4760 c3        1 MOL     -0.062170
    150 C52        -9.6570    4.1520    1.2320 c         1 MOL      0.628157
    151 O22       -10.5100    3.8720    2.0920 o         1 MOL     -0.676634
    152 O23       -10.0270    4.2820    0.0060 o         1 MOL     -0.676634
    153 H65        -5.1280    3.1980   -1.3730 hn        1 MOL      0.366718
    154 H66        -6.9830    2.4240    0.9190 h1        1 MOL      0.067136
    155 H67        -7.4650    4.9250   -0.6030 hc        1 MOL      0.006440
    156 H68        -6.3260    4.9290    0.8250 hc        1 MOL      0.006440
    157 H69        -8.1780    5.6240    1.7820 hc        1 MOL     -0.007622
    158 H70        -7.9420    3.9990    2.3650 hc        1 MOL     -0.007622
    159 N14        -8.2130    1.1110   -1.0840 n         1 MOL     -0.556350
    160 C53        -7.8810   -0.0090   -0.1840 c3        1 MOL      0.057580
    161 C54        -8.2320    0.2050    1.2590 c         1 MOL      0.348486
    162 O24        -9.2950    0.7310    1.5990 o         1 MOL     -0.472289
    163 C55        -8.7120   -1.2200   -0.6310 c3        1 MOL     -0.091070
    164 C56        -8.3900   -2.5140    0.1390 c3        1 MOL     -0.091517
    165 C57        -7.0560   -3.1410   -0.4130 c         1 MOL      0.575304
    166 O25        -7.1220   -4.2900   -0.9380 o         1 MOL     -0.660418
    167 O26        -5.9320   -2.6000   -0.3060 o         1 MOL     -0.660418
    168 H71        -8.9440    1.0150   -1.7760 hn        1 MOL      0.308190
    169 H72        -6.8430   -0.2260   -0.4040 h1        1 MOL      0.046207
    170 H73        -8.4830   -1.4370   -1.6730 hc        1 MOL      0.057908
    171 H74        -9.7810   -0.9950   -0.5210 hc        1 MOL      0.057908
    172 H75        -9.1660   -3.2500   -0.0500 hc        1 MOL      0.010217
    173 H76        -8.2610   -2.3890    1.2180 hc        1 MOL      0.010217
    174 N15        -7.3560   -0.2180    2.2020 n         1 MOL     -0.037010
    175 C58        -7.4470   -0.0790    3.7220 c3        1 MOL     -0.339479
    176 H77        -7.7760    0.9290    3.9750 h1        1 MOL      0.122800
    177 H78        -8.1630   -0.8030    4.1120 h1        1 MOL      0.122800
    178 H79        -6.4680   -0.2620    4.1630 h1        1 MOL      0.122800
    179 H80        -6.5580   -0.6480    1.7440 hn        1 MOL      0.144452
    180 Ca1        -4.4050   -4.6520   -0.4260 Ca        1 MOL      1.719518
    181 O27        -5.1410   -6.9060   -1.9710 oh        1 MOL     -0.876470
    182 H81        -5.7900   -7.5630   -2.2120 ho        1 MOL      0.417419
    183 H82        -4.4850   -6.9530   -2.6680 ho        1 MOL      0.417419
    184 O28        -4.2640   -3.6460   -2.8710 oh        1 MOL     -0.876470
    185 H83        -4.9100   -3.5900   -3.5740 ho        1 MOL      0.417419
    186 H84        -3.4640   -3.2750   -3.2500 ho        1 MOL      0.417419
    187 O29        -4.0040   -3.7740    2.0470 oh        1 MOL     -0.876470
    188 H85        -4.1610   -4.2030    2.8900 ho        1 MOL      0.417419
    189 H86        -4.0880   -2.8440    2.2350 ho        1 MOL      0.417419
    190 O30        -6.1620   -5.7910    1.2860 oh        1 MOL     -0.876470
    191 H87        -6.3290   -6.7320    1.2710 ho        1 MOL      0.417419
    192 H88        -6.2700   -5.5460    2.2070 ho        1 MOL      0.417419
@<TRIPOS>BOND
     1    1    2 1   
     2    1    4 1   
     3    1    5 1   
     4    1    6 1   
     5    2    3 2   
     6    2    7 1   
     7    7    8 1   
     8    7   15 1   
     9    8    9 1   
    10    8   11 1   
    11    8   16 1   
    12    9   10 2   
    13    9   19 1   
    14   11   12 1   
    15   11   17 1   
    16   11   18 1   
    17   12   13 1   
    18   12   14 1   
    19   19   20 1   
    20   19   27 1   
    21   20   21 1   
    22   20   23 1   
    23   20   28 1   
    24   21   22 2   
    25   21   38 1   
    26   23   24 1   
    27   23   25 1   
    28   23   29 1   
    29   24   26 1   
    30   24   30 1   
    31   24   31 1   
    32   25   32 1   
    33   25   33 1   
    34   25   34 1   
    35   26   35 1   
    36   26   36 1   
    37   26   37 1   
    38   38   39 1   
    39   38   46 1   
    40   39   40 1   
    41   39   42 1   
    42   39   47 1   
    43   40   41 2   
    44   40   50 1   
    45   42   43 1   
    46   42   48 1   
    47   42   49 1   
    48   43   44 1   
    49   43   45 1   
    50   50   51 1   
    51   50   54 1   
    52   51   52 1   
    53   51   55 1   
    54   51   56 1   
    55   52   53 2   
    56   52   57 1   
    57   57   58 1   
    58   57   65 1   
    59   58   59 1   
    60   58   61 1   
    61   58   66 1   
    62   59   60 2   
    63   59   69 1   
    64   61   62 1   
    65   61   67 1   
    66   61   68 1   
    67   62   63 1   
    68   62   64 1   
    69   69   70 1   
    70   69   73 1   
    71   70   71 1   
    72   70   74 1   
    73   70   75 1   
    74   71   72 2   
    75   71   76 1   
    76   76   77 1   
    77   76   85 1   
    78   77   78 1   
    79   77   80 1   
    80   77   86 1   
    81   78   79 2   
    82   78   93 1   
    83   80   81 1   
    84   80   87 1   
    85   80   88 1   
    86   81   82 1   
    87   81   89 1   
    88   81   90 1   
    89   82   83 1   
    90   82   84 2   
    91   83   91 1   
    92   83   92 1   
    93   93   94 1   
    94   93  100 1   
    95   94   95 1   
    96   94   97 1   
    97   94  101 1   
    98   95   96 2   
    99   95  109 1   
   100   97   98 1   
   101   97   99 1   
   102   97  102 1   
   103   98  103 1   
   104   98  104 1   
   105   98  105 1   
   106   99  106 1   
   107   99  107 1   
   108   99  108 1   
   109  109  110 1   
   110  109  117 1   
   111  110  111 1   
   112  110  113 1   
   113  110  118 1   
   114  111  112 2   
   115  111  123 1   
   116  113  114 1   
   117  113  119 1   
   118  113  120 1   
   119  114  115 1   
   120  114  116 2   
   121  115  121 1   
   122  115  122 1   
   123  123  124 1   
   124  123  135 1   
   125  124  125 1   
   126  124  127 1   
   127  124  136 1   
   128  125  126 2   
   129  125  144 1   
   130  127  128 1   
   131  127  137 1   
   132  127  138 1   
   133  128  129 ar  
   134  128  130 ar  
   135  129  131 ar  
   136  129  139 1   
   137  130  132 ar  
   138  130  140 1   
   139  131  133 ar  
   140  131  141 1   
   141  132  133 ar  
   142  132  142 1   
   143  133  134 1   
   144  134  143 1   
   145  144  145 1   
   146  144  153 1   
   147  145  146 1   
   148  145  148 1   
   149  145  154 1   
   150  146  147 2   
   151  146  159 1   
   152  148  149 1   
   153  148  155 1   
   154  148  156 1   
   155  149  150 1   
   156  149  157 1   
   157  149  158 1   
   158  150  151 1   
   159  150  152 1   
   160  159  160 1   
   161  159  168 1   
   162  160  161 1   
   163  160  163 1   
   164  160  169 1   
   165  161  162 2   
   166  161  174 1   
   167  163  164 1   
   168  163  170 1   
   169  163  171 1   
   170  164  165 1   
   171  164  172 1   
   172  164  173 1   
   173  165  166 1   
   174  165  167 1   
   175  174  175 1   
   176  174  179 1   
   177  175  176 1   
   178  175  177 1   
   179  175  178 1   
   180  181  182 1   
   181  181  183 1   
   182  184  185 1   
   183  184  186 1   
   184  187  188 1   
   185  187  189 1   
   186  190  191 1   
   187  190  192 1   
@<TRIPOS>SUBSTRUCTURE
     1 MOL         1 TEMP              0 ****  ****    0 ROOT
