@<TRIPOS>MOLECULE
MOL
  189   185     1     0     0
SMALL
resp


@<TRIPOS>ATOM
      1 C1         11.1380    4.8860   -4.4190 c3        1 MOL     -0.398228
      2 C2         11.1890    3.7430   -3.3910 c         1 MOL      0.710423
      3 O1         11.8360    2.7500   -3.6400 o         1 MOL     -0.603479
      4 H1         11.0910    4.4680   -5.4240 hc        1 MOL      0.102429
      5 H2         10.2540    5.4980   -4.2390 hc        1 MOL      0.102429
      6 H3         12.0330    5.5020   -4.3230 hc        1 MOL      0.102429
      7 N1         10.5640    3.9080   -2.2310 n         1 MOL     -0.286465
      8 C3         10.7380    2.9760   -1.0690 c3        1 MOL     -0.259141
      9 C4          9.6570    1.7970   -1.1460 c         1 MOL      0.571345
     10 O2          8.6580    1.9210   -1.9370 o         1 MOL     -0.543196
     11 C5         10.9160    3.6390    0.2690 c3        1 MOL     -0.024436
     12 C6          9.9960    4.8340    0.5230 c         1 MOL      0.849689
     13 O3          9.0860    5.1930   -0.2360 o         1 MOL     -0.756335
     14 O4         10.2290    5.4770    1.5910 o         1 MOL     -0.756335
     15 H4         10.1870    4.8230   -2.0720 hn        1 MOL      0.132572
     16 H5         11.6600    2.4270   -1.2680 h1        1 MOL      0.099281
     17 H6         11.9120    4.0540    0.4640 hc        1 MOL      0.054241
     18 H7         10.7320    2.9570    1.0990 hc        1 MOL      0.054241
     19 N2          9.9770    0.6640   -0.5060 n         1 MOL     -0.448082
     20 C7          9.2170   -0.6080   -0.6420 c3        1 MOL      0.081642
     21 C8          7.7630   -0.6550   -0.0450 c         1 MOL      0.389584
     22 O5          7.1040   -1.6720   -0.1210 o         1 MOL     -0.494730
     23 C9         10.0850   -1.7690   -0.2430 c3        1 MOL     -0.002793
     24 C10        11.2880   -1.9820   -1.1600 c3        1 MOL      0.018957
     25 C11        12.0620   -3.3100   -0.8530 c3        1 MOL     -0.077554
     26 C12        13.2930   -3.5870   -1.7860 c3        1 MOL      0.102262
     27 N3         13.8770   -4.8860   -1.3830 n4        1 MOL     -0.368731
     28 H8         10.7250    0.6980    0.1670 hn        1 MOL      0.282090
     29 H9          8.9600   -0.7800   -1.6880 h1        1 MOL      0.102151
     30 H10         9.4980   -2.6830   -0.2480 hc        1 MOL      0.021861
     31 H11        10.3390   -1.5440    0.7890 hc        1 MOL      0.021861
     32 H12        12.0250   -1.1870   -1.0080 hc        1 MOL      0.016568
     33 H13        10.9730   -1.9550   -2.1950 hc        1 MOL      0.016568
     34 H14        11.3510   -4.1160   -1.0180 hc        1 MOL      0.044371
     35 H15        12.3870   -3.3080    0.1870 hc        1 MOL      0.044371
     36 H16        13.9920   -2.7390   -1.7310 hx        1 MOL      0.063541
     37 H17        13.0020   -3.5880   -2.8400 hx        1 MOL      0.063541
     38 H18        14.2570   -4.8200   -0.4550 hn        1 MOL      0.285211
     39 H19        13.1780   -5.6090   -1.5060 hn        1 MOL      0.285211
     40 H20        14.6790   -5.0040   -1.9970 hn        1 MOL      0.285211
     41 N4          7.2250    0.3930    0.5130 n         1 MOL     -0.239500
     42 C13         6.0290    0.4010    1.2430 c3        1 MOL      0.144910
     43 C14         4.7880    0.5700    0.3030 c         1 MOL      0.525110
     44 O6          4.8110    1.1250   -0.7820 o         1 MOL     -0.586411
     45 C15         6.1800    1.5190    2.3210 c3        1 MOL     -0.665029
     46 C16         6.4950    2.9190    1.8110 c         1 MOL      1.215818
     47 O7          7.6530    3.2490    1.5540 o         1 MOL     -0.904232
     48 O8          5.6610    3.7520    1.6110 o         1 MOL     -0.904232
     49 H21         7.8060    1.2020    0.6600 hn        1 MOL      0.196241
     50 H22         5.9150   -0.5270    1.8200 h1        1 MOL      0.117395
     51 H23         6.9010    1.1980    3.0710 hc        1 MOL      0.155301
     52 H24         5.2240    1.5990    2.8260 hc        1 MOL      0.155301
     53 N5          3.6180    0.1790    0.7600 n         1 MOL     -0.375103
     54 C17         3.1860   -0.4310    1.9680 c3        1 MOL     -0.208056
     55 C18         3.5200   -1.8800    2.0140 c         1 MOL      0.855688
     56 O9          4.2180   -2.2940    1.1570 o         1 MOL     -0.590372
     57 H25         2.8360    0.3470    0.1360 hn        1 MOL      0.302003
     58 H26         2.1030   -0.4370    2.0750 h1        1 MOL      0.083150
     59 H27         3.7290   -0.0100    2.8260 h1        1 MOL      0.083150
     60 N6          3.0790   -2.6030    2.9770 n         1 MOL     -0.680134
     61 C19         3.2950   -4.0600    3.1540 c3        1 MOL      0.108711
     62 C20         2.0530   -4.8260    2.5220 c         1 MOL      0.496360
     63 O10         0.9570   -4.2940    2.5270 o         1 MOL     -0.462347
     64 C21         3.3480   -4.2880    4.7050 c3        1 MOL     -0.036002
     65 C22         3.7830   -5.6710    5.1230 c         1 MOL      0.663102
     66 O11         3.6340   -6.0430    6.2940 o         1 MOL     -0.658455
     67 O12         4.4870   -6.2680    4.3060 o         1 MOL     -0.658455
     68 H28         2.4160   -2.1250    3.5560 hn        1 MOL      0.295447
     69 H29         4.2540   -4.3260    2.7180 h1        1 MOL      0.049667
     70 H30         2.3560   -4.1390    5.1360 hc        1 MOL      0.013484
     71 H31         4.0350   -3.5650    5.1240 hc        1 MOL      0.013484
     72 N7          2.2250   -6.0260    1.9300 n         1 MOL     -0.437632
     73 C23         1.1270   -6.8050    1.3380 c3        1 MOL     -0.033780
     74 C24         0.3150   -6.1640    0.1280 c         1 MOL      0.521452
     75 O13        -0.6630   -6.7400   -0.3590 o         1 MOL     -0.581093
     76 H32         3.1860   -6.2540    1.7410 hn        1 MOL      0.274534
     77 H33         0.4170   -7.1190    2.1130 h1        1 MOL      0.094467
     78 H34         1.4990   -7.7750    1.0070 h1        1 MOL      0.094467
     79 N8          0.6270   -4.9760   -0.3290 n         1 MOL     -0.451571
     80 C25        -0.1950   -4.1860   -1.3110 c3        1 MOL      0.090963
     81 C26        -0.7880   -2.8840   -0.6700 c         1 MOL      0.605028
     82 O14        -0.1950   -2.4330    0.3280 o         1 MOL     -0.520311
     83 C27         0.6550   -3.8040   -2.5520 c3        1 MOL      0.184642
     84 C28        -0.0200   -3.1320   -3.7810 c3        1 MOL     -0.438029
     85 O15         1.7400   -2.8970   -2.3690 oh        1 MOL     -0.530011
     86 H35         1.3500   -4.4390    0.1280 hn        1 MOL      0.246085
     87 H36        -1.0110   -4.7830   -1.7180 h1        1 MOL      0.074829
     88 H37         1.0890   -4.7070   -2.9890 h1        1 MOL      0.042019
     89 H38         2.2720   -3.3350   -1.6980 ho        1 MOL      0.358438
     90 H39         0.8160   -2.9860   -4.4570 hc        1 MOL      0.127183
     91 H40        -0.8540   -3.7450   -4.1100 hc        1 MOL      0.127183
     92 H41        -0.3430   -2.1390   -3.4830 hc        1 MOL      0.127183
     93 N9         -1.9560   -2.4350   -1.1090 n         1 MOL     -0.588344
     94 C29        -2.7610   -1.2280   -0.6850 c3        1 MOL      0.135295
     95 C30        -4.2660   -1.5530   -0.4050 c         1 MOL      0.630872
     96 O16        -4.8730   -0.9040    0.4020 o         1 MOL     -0.508763
     97 C31        -2.5330   -0.0130   -1.6050 c3        1 MOL      0.010555
     98 C32        -3.4510    1.2050   -1.1890 c3        1 MOL      0.211798
     99 C33        -2.8670   -0.2410   -3.1060 c3        1 MOL     -0.305846
    100 C34        -3.0130    1.8780    0.0920 c3        1 MOL     -0.314929
    101 H42        -2.3080   -3.0890   -1.7840 hn        1 MOL      0.302814
    102 H43        -2.3590   -0.9810    0.3000 h1        1 MOL      0.060406
    103 H44        -1.4650    0.1870   -1.5080 hc        1 MOL      0.071029
    104 H45        -4.5200    0.9800   -1.1870 hc        1 MOL     -0.023132
    105 H46        -3.3160    1.9410   -1.9830 hc        1 MOL     -0.023132
    106 H47        -2.4980    0.6320   -3.6450 hc        1 MOL      0.064876
    107 H48        -2.2770   -1.0880   -3.4480 hc        1 MOL      0.064876
    108 H49        -3.9210   -0.3560   -3.3220 hc        1 MOL      0.064876
    109 H50        -1.9480    2.0540    0.1090 hc        1 MOL      0.070838
    110 H51        -3.4440    2.8860    0.0910 hc        1 MOL      0.070838
    111 H52        -3.4520    1.4070    0.9720 hc        1 MOL      0.070838
    112 N10        -4.7260   -2.7400   -0.8930 n         1 MOL     -0.530238
    113 C35        -6.0550   -3.2570   -0.5930 c3        1 MOL     -0.102051
    114 C36        -7.0740   -2.8990   -1.7370 c         1 MOL      0.767936
    115 O17        -6.7870   -3.0850   -2.9080 o         1 MOL     -0.564597
    116 C37        -6.1080   -4.7450   -0.3520 c3        1 MOL      0.417204
    117 C38        -5.0440   -5.2370    0.6190 c3        1 MOL     -0.423071
    118 O18        -7.3420   -5.1120    0.2490 oh        1 MOL     -0.681000
    119 H53        -4.1040   -3.2520   -1.5030 hn        1 MOL      0.259720
    120 H54        -6.3790   -2.8210    0.3590 h1        1 MOL      0.144305
    121 H55        -6.1850   -5.2870   -1.2960 h1        1 MOL     -0.027433
    122 H56        -7.4630   -6.0610    0.1370 ho        1 MOL      0.416941
    123 H57        -5.2450   -6.2940    0.8070 hc        1 MOL      0.123777
    124 H58        -4.0090   -5.1580    0.2750 hc        1 MOL      0.123777
    125 H59        -5.2070   -4.6490    1.5300 hc        1 MOL      0.123777
    126 N11        -8.2080   -2.3470   -1.4280 n         1 MOL     -0.854257
    127 C39        -9.2080   -1.6780   -2.3450 c3        1 MOL      0.458698
    128 C40        -9.4070   -0.1910   -2.2530 c         1 MOL      0.455530
    129 O19        -9.3990    0.5440   -3.3020 o         1 MOL     -0.548697
    130 C41       -10.5490   -2.4230   -2.3620 c3        1 MOL      0.274434
    131 C42       -11.3240   -2.3170   -3.7090 c3        1 MOL     -0.263126
    132 O20       -11.3620   -2.0330   -1.3270 oh        1 MOL     -0.608815
    133 H60        -8.4830   -2.3780   -0.4590 hn        1 MOL      0.348551
    134 H61        -8.8730   -1.8670   -3.3700 h1        1 MOL     -0.001164
    135 H62       -10.3030   -3.4860   -2.2910 h1        1 MOL      0.005760
    136 H63       -12.1860   -2.5020   -1.4350 ho        1 MOL      0.366076
    137 H64       -11.5670   -1.2610   -3.8370 hc        1 MOL      0.063099
    138 H65       -10.7670   -2.7170   -4.5550 hc        1 MOL      0.063099
    139 H66       -12.2480   -2.8880   -3.7080 hc        1 MOL      0.063099
    140 N12        -9.4730    0.3220   -1.0230 n         1 MOL     -0.340179
    141 C43        -9.9720    1.6460   -0.5640 c3        1 MOL      0.031772
    142 C44        -9.0690    2.1910    0.5380 c         1 MOL      0.453684
    143 O21        -8.6130    1.5150    1.4370 o         1 MOL     -0.491647
    144 C45       -11.3950    1.7060    0.0100 c3        1 MOL      0.008899
    145 C46       -12.5210    1.2450   -0.9430 c3        1 MOL     -0.267134
    146 C47       -13.9130    1.0540   -0.3000 c3        1 MOL      0.004571
    147 C48       -14.2100   -0.3230    0.3060 c3        1 MOL     -0.039979
    148 N13       -15.4480   -0.4280    1.0840 n4        1 MOL     -0.210979
    149 H67        -9.4150   -0.3100   -0.2490 hn        1 MOL      0.233092
    150 H68        -9.8620    2.2620   -1.4500 h1        1 MOL      0.073226
    151 H69       -11.5970    2.7550    0.2380 hc        1 MOL      0.039006
    152 H70       -11.4980    1.1310    0.9340 hc        1 MOL      0.039006
    153 H71       -12.1400    0.2700   -1.2460 hc        1 MOL      0.102621
    154 H72       -12.7290    2.0490   -1.6640 hc        1 MOL      0.102621
    155 H73       -14.6600    1.3240   -1.0520 hc        1 MOL      0.040845
    156 H74       -14.0200    1.8310    0.4500 hc        1 MOL      0.040845
    157 H75       -13.3650   -0.5860    0.9390 hx        1 MOL      0.087762
    158 H76       -14.0900   -0.9140   -0.5960 hx        1 MOL      0.087762
    159 H77       -16.1480    0.1490    0.6370 hn        1 MOL      0.237560
    160 H78       -15.7080   -1.3810    1.2910 hn        1 MOL      0.237560
    161 H79       -15.2940    0.0710    1.9600 hn        1 MOL      0.237560
    162 N14        -8.8960    3.5310    0.4710 n         1 MOL     -0.389967
    163 C49        -8.2360    4.3000    1.4770 c3        1 MOL      0.159356
    164 C50        -6.6650    4.2740    1.2830 c         1 MOL      0.449864
    165 O22        -6.0000    3.9790    2.2810 o         1 MOL     -0.522916
    166 C51        -8.8800    5.6930    1.4580 c3        1 MOL     -0.073116
    167 C52        -8.4140    6.4640    2.7060 c3        1 MOL     -0.281666
    168 C53        -9.3320    7.7630    2.6840 c         1 MOL      0.713525
    169 O23        -9.0470    8.6850    1.8440 o         1 MOL     -0.645931
    170 O24       -10.2850    7.8740    3.4610 o         1 MOL     -0.645931
    171 H80        -9.2810    4.0290   -0.3120 hn        1 MOL      0.242514
    172 H81        -8.4970    3.9400    2.4770 h1        1 MOL      0.069238
    173 H82        -9.9700    5.5750    1.5170 hc        1 MOL      0.033515
    174 H83        -8.6460    6.1260    0.4860 hc        1 MOL      0.033515
    175 H84        -7.3460    6.6730    2.7150 hc        1 MOL      0.071821
    176 H85        -8.7060    5.9360    3.6160 hc        1 MOL      0.071821
    177 N15        -6.0510    4.5470    0.0710 n         1 MOL     -0.321210
    178 C54        -6.5800    4.7200   -1.3110 c3        1 MOL     -0.054203
    179 H86        -6.4320    3.7970   -1.8730 h1        1 MOL      0.058343
    180 H87        -7.6440    4.9520   -1.2670 h1        1 MOL      0.058343
    181 H88        -6.0500    5.5340   -1.8040 h1        1 MOL      0.058343
    182 H89        -5.0550    4.5050    0.1920 hn        1 MOL      0.239138
    183 Ca1         6.5670    5.5170   -0.1410 Ca        1 MOL      1.829378
    184 O25         7.8990    7.0240    1.6150 oh        1 MOL     -1.092069
    185 H90         8.7220    6.5370    1.5270 ho        1 MOL      0.504543
    186 H91         8.1090    7.7530    2.2010 ho        1 MOL      0.504543
    187 O26         6.3410    3.1980   -1.3440 oh        1 MOL     -1.092069
    188 H92         7.0570    2.5940   -1.5580 ho        1 MOL      0.504543
    189 H93         5.6160    2.6390   -1.0870 ho        1 MOL      0.504543
@<TRIPOS>BOND
     1    1    2 1   
     2    1    4 1   
     3    1    5 1   
     4    1    6 1   
     5    2    3 2   
     6    2    7 1   
     7    7    8 1   
     8    7   15 1   
     9    8    9 1   
    10    8   11 1   
    11    8   16 1   
    12    9   10 2   
    13    9   19 1   
    14   11   12 1   
    15   11   17 1   
    16   11   18 1   
    17   12   13 1   
    18   12   14 1   
    19   19   20 1   
    20   19   28 1   
    21   20   21 1   
    22   20   23 1   
    23   20   29 1   
    24   21   22 2   
    25   21   41 1   
    26   23   24 1   
    27   23   30 1   
    28   23   31 1   
    29   24   25 1   
    30   24   32 1   
    31   24   33 1   
    32   25   26 1   
    33   25   34 1   
    34   25   35 1   
    35   26   27 1   
    36   26   36 1   
    37   26   37 1   
    38   27   38 1   
    39   27   39 1   
    40   27   40 1   
    41   41   42 1   
    42   41   49 1   
    43   42   43 1   
    44   42   45 1   
    45   42   50 1   
    46   43   44 2   
    47   43   53 1   
    48   45   46 1   
    49   45   51 1   
    50   45   52 1   
    51   46   47 1   
    52   46   48 1   
    53   53   54 1   
    54   53   57 1   
    55   54   55 1   
    56   54   58 1   
    57   54   59 1   
    58   55   56 2   
    59   55   60 1   
    60   60   61 1   
    61   60   68 1   
    62   61   62 1   
    63   61   64 1   
    64   61   69 1   
    65   62   63 2   
    66   62   72 1   
    67   64   65 1   
    68   64   70 1   
    69   64   71 1   
    70   65   66 1   
    71   65   67 1   
    72   72   73 1   
    73   72   76 1   
    74   73   74 1   
    75   73   77 1   
    76   73   78 1   
    77   74   75 2   
    78   74   79 1   
    79   79   80 1   
    80   79   86 1   
    81   80   81 1   
    82   80   83 1   
    83   80   87 1   
    84   81   82 2   
    85   81   93 1   
    86   83   84 1   
    87   83   85 1   
    88   83   88 1   
    89   84   90 1   
    90   84   91 1   
    91   84   92 1   
    92   85   89 1   
    93   93   94 1   
    94   93  101 1   
    95   94   95 1   
    96   94   97 1   
    97   94  102 1   
    98   95   96 2   
    99   95  112 1   
   100   97   98 1   
   101   97   99 1   
   102   97  103 1   
   103   98  100 1   
   104   98  104 1   
   105   98  105 1   
   106   99  106 1   
   107   99  107 1   
   108   99  108 1   
   109  100  109 1   
   110  100  110 1   
   111  100  111 1   
   112  112  113 1   
   113  112  119 1   
   114  113  114 1   
   115  113  116 1   
   116  113  120 1   
   117  114  115 2   
   118  114  126 1   
   119  116  117 1   
   120  116  118 1   
   121  116  121 1   
   122  117  123 1   
   123  117  124 1   
   124  117  125 1   
   125  118  122 1   
   126  126  127 1   
   127  126  133 1   
   128  127  128 1   
   129  127  130 1   
   130  127  134 1   
   131  128  129 2   
   132  128  140 1   
   133  130  131 1   
   134  130  132 1   
   135  130  135 1   
   136  131  137 1   
   137  131  138 1   
   138  131  139 1   
   139  132  136 1   
   140  140  141 1   
   141  140  149 1   
   142  141  142 1   
   143  141  144 1   
   144  141  150 1   
   145  142  143 2   
   146  142  162 1   
   147  144  145 1   
   148  144  151 1   
   149  144  152 1   
   150  145  146 1   
   151  145  153 1   
   152  145  154 1   
   153  146  147 1   
   154  146  155 1   
   155  146  156 1   
   156  147  148 1   
   157  147  157 1   
   158  147  158 1   
   159  148  159 1   
   160  148  160 1   
   161  148  161 1   
   162  162  163 1   
   163  162  171 1   
   164  163  164 1   
   165  163  166 1   
   166  163  172 1   
   167  164  165 2   
   168  164  177 1   
   169  166  167 1   
   170  166  173 1   
   171  166  174 1   
   172  167  168 1   
   173  167  175 1   
   174  167  176 1   
   175  168  169 1   
   176  168  170 1   
   177  177  178 1   
   178  177  182 1   
   179  178  179 1   
   180  178  180 1   
   181  178  181 1   
   182  184  185 1   
   183  184  186 1   
   184  187  188 1   
   185  187  189 1   
@<TRIPOS>SUBSTRUCTURE
     1 MOL         1 TEMP              0 ****  ****    0 ROOT
