@<TRIPOS>MOLECULE
MOL
  189   185     1     0     0
SMALL
resp


@<TRIPOS>ATOM
      1 C1         -4.2950    3.5120    3.7830 c3        1 MOL     -0.443384
      2 C2         -5.0980    2.8520    2.6620 c         1 MOL      0.773387
      3 O1         -4.6890    2.8150    1.5120 o         1 MOL     -0.636067
      4 H1         -3.9740    4.5040    3.4640 hc        1 MOL      0.113584
      5 H2         -4.9170    3.6010    4.6730 hc        1 MOL      0.113584
      6 H3         -3.4190    2.9050    4.0100 hc        1 MOL      0.113584
      7 N1         -6.2260    2.2340    3.0300 n         1 MOL     -0.712473
      8 C3         -7.0310    1.2140    2.2760 c3        1 MOL      0.354886
      9 C4         -6.1470    0.0650    1.6010 c         1 MOL      0.314256
     10 O2         -5.8110    0.1590    0.4190 o         1 MOL     -0.538816
     11 C5         -7.9950    1.8860    1.2140 c3        1 MOL     -0.370730
     12 C6         -7.4420    3.1600    0.5350 c         1 MOL      0.874930
     13 O3         -6.7750    3.1880   -0.4940 o         1 MOL     -0.764232
     14 O4         -7.8110    4.2850    0.9570 o         1 MOL     -0.764232
     15 H4         -6.5120    2.4560    3.9630 hn        1 MOL      0.329906
     16 H5         -7.7650    0.8420    3.0020 h1        1 MOL      0.030379
     17 H6         -8.9250    2.1040    1.7290 hc        1 MOL      0.077295
     18 H7         -8.1940    1.2120    0.3780 hc        1 MOL      0.077295
     19 N2         -5.8460   -0.9290    2.4860 n         1 MOL     -0.486186
     20 C7         -4.9460   -2.0680    2.4550 c3        1 MOL      0.319280
     21 C8         -5.3270   -3.3040    1.5840 c         1 MOL      0.261269
     22 O5         -5.4880   -4.4120    2.0650 o         1 MOL     -0.522949
     23 C9         -3.4990   -1.5060    2.2600 c3        1 MOL      0.033857
     24 C10        -2.4510   -2.5660    2.3250 c3        1 MOL      0.003480
     25 C11        -3.1280   -0.3970    3.2380 c3        1 MOL     -0.204155
     26 C12        -2.2920   -3.3570    3.6590 c3        1 MOL     -0.129813
     27 H8         -6.2430   -0.7550    3.3980 hn        1 MOL      0.243955
     28 H9         -4.9810   -2.4720    3.4650 h1        1 MOL      0.014470
     29 H10        -3.4330   -0.9880    1.3050 hc        1 MOL      0.017272
     30 H11        -1.5050   -2.1260    2.0220 hc        1 MOL      0.014240
     31 H12        -2.7070   -3.3200    1.5740 hc        1 MOL      0.014240
     32 H13        -2.0910   -0.0910    3.1080 hc        1 MOL      0.035185
     33 H14        -3.7120    0.5260    3.1490 hc        1 MOL      0.035185
     34 H15        -3.1920   -0.7500    4.2730 hc        1 MOL      0.035185
     35 H16        -1.5440   -4.1440    3.5820 hc        1 MOL      0.017098
     36 H17        -1.9550   -2.6730    4.4340 hc        1 MOL      0.017098
     37 H18        -3.2650   -3.7720    3.9360 hc        1 MOL      0.017098
     38 N3         -5.4680   -3.1120    0.2750 n         1 MOL     -0.159370
     39 C13        -6.3110   -4.0010   -0.5690 c3        1 MOL      0.208758
     40 C14        -5.5180   -5.1900   -1.1210 c         1 MOL      0.548418
     41 O6         -6.0790   -6.2910   -0.9950 o         1 MOL     -0.580828
     42 C15        -7.0860   -3.1540   -1.5340 c3        1 MOL     -0.329964
     43 C16        -8.0110   -2.0610   -0.9960 c         1 MOL      0.794330
     44 O7         -8.1580   -1.0060   -1.6960 o         1 MOL     -0.714333
     45 O8         -8.7490   -2.3380   -0.0400 o         1 MOL     -0.714333
     46 H19        -5.3030   -2.1670   -0.0530 hn        1 MOL      0.318844
     47 H20        -7.0730   -4.4910    0.0290 h1        1 MOL      0.027668
     48 H21        -7.7450   -3.8440   -2.0490 hc        1 MOL      0.070858
     49 H22        -6.3750   -2.7970   -2.2960 hc        1 MOL      0.070858
     50 N4         -4.2460   -5.1060   -1.5700 n         1 MOL     -0.589362
     51 C17        -3.3870   -3.9970   -2.0710 c3        1 MOL      0.167120
     52 C18        -3.8390   -3.2500   -3.3590 c         1 MOL      0.278298
     53 O9         -4.6730   -3.7090   -4.1710 o         1 MOL     -0.519973
     54 H23        -3.7550   -5.9910   -1.5960 hn        1 MOL      0.307294
     55 H24        -2.4440   -4.4920   -2.2770 h1        1 MOL      0.060600
     56 H25        -3.1280   -3.2860   -1.2910 h1        1 MOL      0.060600
     57 N5         -3.3570   -2.0550   -3.6950 n         1 MOL     -0.185042
     58 C19        -2.2590   -1.3700   -3.0280 c3        1 MOL     -0.012208
     59 C20        -2.5480   -0.9760   -1.5700 c         1 MOL      0.132581
     60 O10        -3.6450   -0.5400   -1.3010 o         1 MOL     -0.536652
     61 C21        -1.6840   -0.1230   -3.7830 c3        1 MOL     -0.400854
     62 C22        -2.8040    0.9410   -3.9450 c         1 MOL      0.836198
     63 O11        -3.3740    0.9210   -5.0520 o         1 MOL     -0.702317
     64 O12        -3.0580    1.6720   -2.9860 o         1 MOL     -0.702317
     65 H26        -3.6420   -1.6080   -4.5600 hn        1 MOL      0.271433
     66 H27        -1.4320   -2.0810   -3.0240 h1        1 MOL      0.062777
     67 H28        -1.5020   -0.5320   -4.7720 hc        1 MOL      0.099250
     68 H29        -0.7860    0.3390   -3.3770 hc        1 MOL      0.099250
     69 N6         -1.6390   -0.9610   -0.5810 n         1 MOL     -0.011133
     70 C23        -0.2120   -1.1980   -0.7200 c3        1 MOL     -0.116587
     71 C24         0.2300   -2.6820   -0.6200 c         1 MOL      0.334284
     72 O13        -0.5330   -3.5850   -0.4350 o         1 MOL     -0.490193
     73 H30        -1.8880   -0.5270    0.2990 hn        1 MOL      0.167385
     74 H31         0.3360   -0.6560    0.0450 h1        1 MOL      0.099969
     75 H32         0.1520   -0.7530   -1.6450 h1        1 MOL      0.099969
     76 N7          1.5010   -2.9480   -0.8320 n         1 MOL     -0.277250
     77 C25         2.1920   -4.2350   -0.4680 c3        1 MOL      0.112226
     78 C26         2.8660   -4.2260    0.9160 c         1 MOL      0.371718
     79 O14         3.0630   -5.2700    1.5270 o         1 MOL     -0.526383
     80 C27         3.0900   -4.8190   -1.5830 c3        1 MOL     -0.224052
     81 C28         4.0620   -3.7500   -2.1250 c3        1 MOL      0.029756
     82 C29         5.1840   -3.3710   -1.1700 c         1 MOL      0.227200
     83 N8          6.1540   -4.2190   -0.8710 n         1 MOL     -0.553552
     84 O15         5.1690   -2.2840   -0.7250 o         1 MOL     -0.331204
     85 H33         2.0670   -2.1370   -1.0020 hn        1 MOL      0.202817
     86 H34         1.4340   -4.9800   -0.2530 h1        1 MOL      0.106261
     87 H35         2.3740   -4.9880   -2.3830 hc        1 MOL      0.082938
     88 H36         3.6390   -5.7210   -1.3270 hc        1 MOL      0.082938
     89 H37         3.5210   -2.9240   -2.5870 hc        1 MOL      0.024929
     90 H38         4.6310   -4.1600   -2.9510 hc        1 MOL      0.024929
     91 H39         6.2350   -5.0630   -1.4190 hn        1 MOL      0.318297
     92 H40         6.9780   -3.8850   -0.4020 hn        1 MOL      0.318297
     93 N9          2.9560   -3.0320    1.5360 n         1 MOL     -0.017146
     94 C30         3.4280   -2.8640    2.9620 c3        1 MOL     -0.273138
     95 C31         4.6620   -1.9990    3.1900 c         1 MOL      0.508444
     96 O16         5.0120   -1.7470    4.3240 o         1 MOL     -0.536590
     97 C32         2.2850   -2.4300    3.9830 c3        1 MOL      0.283651
     98 C33         1.1040   -3.3560    3.8440 c3        1 MOL     -0.295455
     99 C34         1.8710   -0.9710    3.6490 c3        1 MOL     -0.295455
    100 H41         2.6860   -2.1640    1.0880 hn        1 MOL      0.173175
    101 H42         3.7470   -3.8560    3.2550 h1        1 MOL      0.125643
    102 H43         2.6820   -2.5150    4.9940 hc        1 MOL     -0.000351
    103 H44         0.4290   -3.2400    4.6960 hc        1 MOL      0.075973
    104 H45         0.6220   -2.9970    2.9370 hc        1 MOL      0.075973
    105 H46         1.3560   -4.3990    3.6970 hc        1 MOL      0.075973
    106 H47         2.7260   -0.2900    3.7440 hc        1 MOL      0.075973
    107 H48         1.4700   -0.8450    2.6460 hc        1 MOL      0.075973
    108 H49         1.1670   -0.6220    4.3970 hc        1 MOL      0.075973
    109 N10         5.3830   -1.6490    2.0890 n         1 MOL     -0.300335
    110 C35         6.6240   -0.8340    2.0330 c3        1 MOL      0.044383
    111 C36         6.5170    0.5390    1.1980 c         1 MOL      0.576169
    112 O17         7.1070    1.5130    1.6540 o         1 MOL     -0.553805
    113 C37         7.7820   -1.6150    1.3100 c3        1 MOL     -0.150914
    114 C38         8.1550   -2.9850    1.8720 c         1 MOL      0.599725
    115 N11         8.4110   -3.1560    3.1370 n         1 MOL     -0.724756
    116 O18         8.3340   -3.9120    1.0750 o         1 MOL     -0.574967
    117 H50         5.0180   -1.8550    1.1730 hn        1 MOL      0.163980
    118 H51         7.0410   -0.5450    2.9880 h1        1 MOL      0.060643
    119 H52         8.6940   -1.0440    1.4490 hc        1 MOL      0.070444
    120 H53         7.4990   -1.7810    0.2770 hc        1 MOL      0.070444
    121 H54         8.2880   -2.4830    3.8760 hn        1 MOL      0.353752
    122 H55         8.8970   -4.0010    3.3810 hn        1 MOL      0.353752
    123 N12         5.6520    0.5860    0.1420 n         1 MOL     -0.585101
    124 C39         5.6300    1.7730   -0.7470 c3        1 MOL      0.371901
    125 C40         4.2920    2.6020   -0.5580 c         1 MOL      0.468836
    126 O19         3.1890    2.0520   -0.4560 o         1 MOL     -0.492533
    127 C41         5.7270    1.2460   -2.1980 c3        1 MOL     -0.168972
    128 C42         6.9120    0.3500   -2.4910 ca        1 MOL     -0.019432
    129 C43         6.6270   -0.9380   -3.0730 ca        1 MOL     -0.072479
    130 C44         8.2240    0.6480   -2.0700 ca        1 MOL     -0.072479
    131 C45         7.6790   -1.8750   -3.3130 ca        1 MOL     -0.344835
    132 C46         9.2430   -0.3020   -2.3620 ca        1 MOL     -0.344835
    133 C47         9.0130   -1.5580   -2.9150 ca        1 MOL      0.396856
    134 O20        10.0130   -2.4360   -3.0540 oh        1 MOL     -0.516330
    135 H56         5.1520   -0.2510   -0.1250 hn        1 MOL      0.213400
    136 H57         6.4260    2.4800   -0.5050 h1        1 MOL      0.018133
    137 H58         5.8770    2.1070   -2.8610 hc        1 MOL      0.077308
    138 H59         4.8210    0.6790   -2.4000 hc        1 MOL      0.077308
    139 H60         5.6170   -1.1530   -3.3990 ha        1 MOL      0.127407
    140 H61         8.4250    1.5650   -1.5340 ha        1 MOL      0.127407
    141 H62         7.4370   -2.8230   -3.7800 ha        1 MOL      0.153490
    142 H63        10.2420    0.0240   -2.1570 ha        1 MOL      0.153490
    143 H64         9.7700   -3.2780   -3.4590 ho        1 MOL      0.375579
    144 N13         4.4390    3.9420   -0.7610 n         1 MOL     -0.711531
    145 C48         3.3270    4.8980   -0.8250 c3        1 MOL      0.414440
    146 C49         2.3960    5.0820    0.4220 c         1 MOL      0.382772
    147 O21         2.0350    6.2570    0.7030 o         1 MOL     -0.535402
    148 C50         2.5050    4.7960   -2.1180 c3        1 MOL     -0.094954
    149 C51         3.3420    4.8680   -3.4250 c3        1 MOL     -0.100830
    150 C52         3.9150    6.2480   -3.6510 c         1 MOL      0.669974
    151 O22         3.1070    7.1790   -3.8130 o         1 MOL     -0.733249
    152 O23         5.1650    6.3960   -3.5790 o         1 MOL     -0.733249
    153 H65         5.3940    4.2480   -0.6260 hn        1 MOL      0.334083
    154 H66         3.7520    5.8990   -0.9160 h1        1 MOL      0.017890
    155 H67         1.8720    5.6850   -2.0750 hc        1 MOL      0.070179
    156 H68         1.8690    3.9050   -2.1300 hc        1 MOL      0.070179
    157 H69         2.6620    4.6050   -4.2360 hc        1 MOL     -0.011607
    158 H70         4.1330    4.1180   -3.5120 hc        1 MOL     -0.011607
    159 N14         2.0380    4.0350    1.1650 n         1 MOL     -0.465890
    160 C53         1.0020    3.9670    2.1570 c3        1 MOL     -0.004346
    161 C54         1.3980    4.6560    3.4530 c         1 MOL      0.479874
    162 O24         0.6290    4.6670    4.3730 o         1 MOL     -0.555422
    163 C55         0.6260    2.5270    2.3820 c3        1 MOL     -0.353850
    164 C56        -0.0290    1.8910    1.1360 c3        1 MOL      0.454996
    165 C57        -1.3250    2.5430    0.5270 c         1 MOL      0.474892
    166 O25        -2.2320    1.7780    0.1330 o         1 MOL     -0.569609
    167 O26        -1.3350    3.7130    0.1260 o         1 MOL     -0.569609
    168 H71         2.3100    3.1390    0.7760 hn        1 MOL      0.283672
    169 H72         0.1650    4.5810    1.8270 h1        1 MOL      0.152524
    170 H73        -0.1300    2.4070    3.1450 hc        1 MOL      0.087934
    171 H74         1.4480    1.8510    2.6180 hc        1 MOL      0.087934
    172 H75        -0.2610    0.8330    1.3120 hc        1 MOL     -0.144272
    173 H76         0.7380    1.9000    0.3630 hc        1 MOL     -0.144272
    174 N15         2.5620    5.2980    3.5160 n         1 MOL     -0.220501
    175 C58         3.0740    6.0220    4.7330 c3        1 MOL     -0.066736
    176 H77         2.3960    5.8520    5.5690 h1        1 MOL      0.051675
    177 H78         4.0660    5.6480    4.9880 h1        1 MOL      0.051675
    178 H79         3.1310    7.0900    4.5240 h1        1 MOL      0.051675
    179 H80         3.1220    5.1810    2.6880 hn        1 MOL      0.206473
    180 Ca1        -4.5360    2.0480   -0.9920 Ca        1 MOL      1.769188
    181 O27        -5.0470    3.8030   -3.6810 oh        1 MOL     -0.782276
    182 H81        -4.5960    3.5860   -4.5030 ho        1 MOL      0.363397
    183 H82        -5.8930    4.1320   -3.9630 ho        1 MOL      0.363397
    184 O28        -6.4200    0.7080   -2.7320 oh        1 MOL     -0.782276
    185 H83        -7.0920    0.1170   -2.3950 ho        1 MOL      0.363397
    186 H84        -6.2550    0.3950   -3.6250 ho        1 MOL      0.363397
    187 O29        -3.6050    4.5620   -0.8440 oh        1 MOL     -0.782276
    188 H85        -2.7910    4.4830   -0.3540 ho        1 MOL      0.363397
    189 H86        -4.1980    5.0120   -0.2470 ho        1 MOL      0.363397
@<TRIPOS>BOND
     1    1    2 1   
     2    1    4 1   
     3    1    5 1   
     4    1    6 1   
     5    2    3 2   
     6    2    7 1   
     7    7    8 1   
     8    7   15 1   
     9    8    9 1   
    10    8   11 1   
    11    8   16 1   
    12    9   10 2   
    13    9   19 1   
    14   11   12 1   
    15   11   17 1   
    16   11   18 1   
    17   12   13 1   
    18   12   14 1   
    19   19   20 1   
    20   19   27 1   
    21   20   21 1   
    22   20   23 1   
    23   20   28 1   
    24   21   22 2   
    25   21   38 1   
    26   23   24 1   
    27   23   25 1   
    28   23   29 1   
    29   24   26 1   
    30   24   30 1   
    31   24   31 1   
    32   25   32 1   
    33   25   33 1   
    34   25   34 1   
    35   26   35 1   
    36   26   36 1   
    37   26   37 1   
    38   38   39 1   
    39   38   46 1   
    40   39   40 1   
    41   39   42 1   
    42   39   47 1   
    43   40   41 2   
    44   40   50 1   
    45   42   43 1   
    46   42   48 1   
    47   42   49 1   
    48   43   44 1   
    49   43   45 1   
    50   50   51 1   
    51   50   54 1   
    52   51   52 1   
    53   51   55 1   
    54   51   56 1   
    55   52   53 2   
    56   52   57 1   
    57   57   58 1   
    58   57   65 1   
    59   58   59 1   
    60   58   61 1   
    61   58   66 1   
    62   59   60 2   
    63   59   69 1   
    64   61   62 1   
    65   61   67 1   
    66   61   68 1   
    67   62   63 1   
    68   62   64 1   
    69   69   70 1   
    70   69   73 1   
    71   70   71 1   
    72   70   74 1   
    73   70   75 1   
    74   71   72 2   
    75   71   76 1   
    76   76   77 1   
    77   76   85 1   
    78   77   78 1   
    79   77   80 1   
    80   77   86 1   
    81   78   79 2   
    82   78   93 1   
    83   80   81 1   
    84   80   87 1   
    85   80   88 1   
    86   81   82 1   
    87   81   89 1   
    88   81   90 1   
    89   82   83 1   
    90   82   84 2   
    91   83   91 1   
    92   83   92 1   
    93   93   94 1   
    94   93  100 1   
    95   94   95 1   
    96   94   97 1   
    97   94  101 1   
    98   95   96 2   
    99   95  109 1   
   100   97   98 1   
   101   97   99 1   
   102   97  102 1   
   103   98  103 1   
   104   98  104 1   
   105   98  105 1   
   106   99  106 1   
   107   99  107 1   
   108   99  108 1   
   109  109  110 1   
   110  109  117 1   
   111  110  111 1   
   112  110  113 1   
   113  110  118 1   
   114  111  112 2   
   115  111  123 1   
   116  113  114 1   
   117  113  119 1   
   118  113  120 1   
   119  114  115 1   
   120  114  116 2   
   121  115  121 1   
   122  115  122 1   
   123  123  124 1   
   124  123  135 1   
   125  124  125 1   
   126  124  127 1   
   127  124  136 1   
   128  125  126 2   
   129  125  144 1   
   130  127  128 1   
   131  127  137 1   
   132  127  138 1   
   133  128  129 ar  
   134  128  130 ar  
   135  129  131 ar  
   136  129  139 1   
   137  130  132 ar  
   138  130  140 1   
   139  131  133 ar  
   140  131  141 1   
   141  132  133 ar  
   142  132  142 1   
   143  133  134 1   
   144  134  143 1   
   145  144  145 1   
   146  144  153 1   
   147  145  146 1   
   148  145  148 1   
   149  145  154 1   
   150  146  147 2   
   151  146  159 1   
   152  148  149 1   
   153  148  155 1   
   154  148  156 1   
   155  149  150 1   
   156  149  157 1   
   157  149  158 1   
   158  150  151 1   
   159  150  152 1   
   160  159  160 1   
   161  159  168 1   
   162  160  161 1   
   163  160  163 1   
   164  160  169 1   
   165  161  162 2   
   166  161  174 1   
   167  163  164 1   
   168  163  170 1   
   169  163  171 1   
   170  164  165 1   
   171  164  172 1   
   172  164  173 1   
   173  165  166 1   
   174  165  167 1   
   175  174  175 1   
   176  174  179 1   
   177  175  176 1   
   178  175  177 1   
   179  175  178 1   
   180  181  182 1   
   181  181  183 1   
   182  184  185 1   
   183  184  186 1   
   184  187  188 1   
   185  187  189 1   
@<TRIPOS>SUBSTRUCTURE
     1 MOL         1 TEMP              0 ****  ****    0 ROOT
