@<TRIPOS>MOLECULE
MOL
  192   187     1     0     0
SMALL
resp


@<TRIPOS>ATOM
      1 C1         -4.8150   -1.4650    3.1300 c3        1 MOL     -0.332109
      2 C2         -3.8590   -2.1330    2.1760 c         1 MOL      0.555104
      3 O1         -2.7640   -1.6890    1.8620 o         1 MOL     -0.450427
      4 H1         -5.4120   -0.7300    2.5900 hc        1 MOL      0.081578
      5 H2         -5.4740   -2.2150    3.5690 hc        1 MOL      0.081578
      6 H3         -4.2530   -0.9680    3.9210 hc        1 MOL      0.081578
      7 N1         -4.2600   -3.3140    1.6810 n         1 MOL     -0.591151
      8 C3         -3.4400   -4.1590    0.7470 c3        1 MOL      0.159250
      9 C4         -1.9470   -4.2860    1.0180 c         1 MOL      0.699515
     10 O2         -1.0530   -4.0910    0.1690 o         1 MOL     -0.521327
     11 C5         -3.6560   -3.7170   -0.6930 c3        1 MOL     -0.317228
     12 C6         -5.0990   -3.5170   -1.1640 c         1 MOL      1.040965
     13 O3         -5.9550   -4.3600   -0.8560 o         1 MOL     -0.903696
     14 O4         -5.4620   -2.5360   -1.9000 o         1 MOL     -0.903696
     15 H4         -5.1120   -3.6910    2.0720 hn        1 MOL      0.303941
     16 H5         -3.8600   -5.1680    0.8250 h1        1 MOL      0.069103
     17 H6         -3.2190   -4.5120   -1.2950 hc        1 MOL      0.067678
     18 H7         -3.0390   -2.8320   -0.8480 hc        1 MOL      0.067678
     19 N2         -1.5550   -4.5960    2.2350 n         1 MOL     -0.818276
     20 C7         -0.1110   -4.7050    2.6450 c3        1 MOL      0.034497
     21 C8          0.6410   -6.0640    1.9640 c         1 MOL      0.665332
     22 O5          0.0390   -7.1190    1.8340 o         1 MOL     -0.599913
     23 C9          0.0270   -4.6790    4.1790 c3        1 MOL      0.117330
     24 C10        -0.7010   -5.8620    4.9080 c3        1 MOL      0.008316
     25 C11        -0.4490   -3.3060    4.6250 c3        1 MOL     -0.241378
     26 C12        -0.0750   -5.9690    6.3070 c3        1 MOL     -0.089882
     27 H8         -2.2590   -4.6000    2.9520 hn        1 MOL      0.388525
     28 H9          0.4220   -3.8370    2.2760 h1        1 MOL      0.171820
     29 H10         1.1050   -4.7750    4.3450 hc        1 MOL      0.022764
     30 H11        -0.4600   -6.7630    4.3310 hc        1 MOL     -0.007772
     31 H12        -1.7670   -5.6110    4.9310 hc        1 MOL     -0.007772
     32 H13        -0.0680   -2.4670    4.0450 hc        1 MOL      0.069472
     33 H14        -1.5380   -3.2490    4.6460 hc        1 MOL      0.069472
     34 H15        -0.1690   -3.0090    5.6320 hc        1 MOL      0.069472
     35 H16         0.9980   -6.1290    6.2440 hc        1 MOL      0.011398
     36 H17        -0.1260   -5.0460    6.8710 hc        1 MOL      0.011398
     37 H18        -0.4990   -6.7390    6.9560 hc        1 MOL      0.011398
     38 N3          1.7950   -6.0580    1.3950 n         1 MOL     -0.562576
     39 C13         2.3850   -4.8680    0.8650 c3        1 MOL      0.017586
     40 C14         3.3110   -5.3260   -0.3240 c         1 MOL      0.567618
     41 O6          4.2730   -6.0620   -0.1750 o         1 MOL     -0.545087
     42 C15         3.2340   -4.0220    1.9260 c3        1 MOL     -0.200139
     43 C16         4.3940   -3.2030    1.3030 c         1 MOL      0.770065
     44 O7          5.4420   -3.1960    2.0130 o         1 MOL     -0.696813
     45 O8          4.2710   -2.6560    0.1800 o         1 MOL     -0.696813
     46 H19         2.0780   -6.9550    1.0430 hn        1 MOL      0.323719
     47 H20         1.6310   -4.2570    0.3590 h1        1 MOL      0.018697
     48 H21         3.7680   -4.7440    2.5420 hc        1 MOL      0.030394
     49 H22         2.6030   -3.4440    2.6040 hc        1 MOL      0.030394
     50 N4          2.9910   -4.7670   -1.4480 n         1 MOL     -0.288832
     51 C17         3.5730   -5.2290   -2.6610 c3        1 MOL     -0.314743
     52 C18         4.7860   -4.4130   -3.1820 c         1 MOL      0.755373
     53 O9          5.3170   -4.6630   -4.2610 o         1 MOL     -0.628817
     54 H23         2.2230   -4.1080   -1.4340 hn        1 MOL      0.316383
     55 H24         2.7900   -5.1800   -3.4260 h1        1 MOL      0.114271
     56 H25         3.8780   -6.2690   -2.5280 h1        1 MOL      0.114271
     57 N5          5.2950   -3.3710   -2.4160 n         1 MOL     -0.664742
     58 C19         6.2730   -2.4050   -2.9280 c3        1 MOL      0.261449
     59 C20         7.2780   -1.8940   -1.9000 c         1 MOL      0.321227
     60 O10         8.3370   -1.4910   -2.4100 o         1 MOL     -0.551511
     61 C21         5.4830   -1.2680   -3.6080 c3        1 MOL     -0.249239
     62 C22         4.4020   -0.7440   -2.6630 c         1 MOL      0.726191
     63 O11         3.2030   -1.1650   -2.7790 o         1 MOL     -0.662127
     64 O12         4.6980    0.1150   -1.8150 o         1 MOL     -0.662127
     65 H26         4.8790   -3.1650   -1.5230 hn        1 MOL      0.342416
     66 H27         6.9120   -2.8890   -3.6610 h1        1 MOL      0.057712
     67 H28         5.0680   -1.7340   -4.5070 hc        1 MOL      0.044973
     68 H29         6.2250   -0.4890   -3.8240 hc        1 MOL      0.044973
     69 N6          6.9630   -1.7650   -0.6010 n         1 MOL     -0.101941
     70 C23         7.8510   -1.0940    0.3410 c3        1 MOL     -0.350794
     71 C24         7.9410    0.4620    0.2010 c         1 MOL      0.636619
     72 O13         8.7610    1.0320    0.9340 o         1 MOL     -0.647925
     73 H30         6.0810   -2.1050   -0.2470 hn        1 MOL      0.211188
     74 H31         8.8820   -1.4240    0.1440 h1        1 MOL      0.134109
     75 H32         7.4800   -1.3510    1.3340 h1        1 MOL      0.134109
     76 N7          7.1960    1.1010   -0.6310 n         1 MOL     -0.075199
     77 C25         7.1010    2.5060   -0.9120 c3        1 MOL     -0.116415
     78 C26         6.9170    3.4180    0.4100 c         1 MOL      0.543521
     79 O14         7.3530    4.5760    0.5050 o         1 MOL     -0.532802
     80 C27         8.2060    2.8780   -1.9450 c3        1 MOL      0.089759
     81 C28         8.2130    2.0320   -3.2590 c3        1 MOL      0.048712
     82 C29         8.9380    2.6810   -4.3920 c         1 MOL      0.613485
     83 N8         10.0180    3.3270   -4.1570 n         1 MOL     -0.746567
     84 O15         8.5370    2.7220   -5.5390 o         1 MOL     -0.608514
     85 H33         6.6760    0.4660   -1.2110 hn        1 MOL      0.106410
     86 H34         6.1710    2.7100   -1.4420 h1        1 MOL      0.140905
     87 H35         9.1950    2.8430   -1.4890 hc        1 MOL     -0.032593
     88 H36         7.9910    3.8980   -2.2740 hc        1 MOL     -0.032593
     89 H37         7.1610    1.9060   -3.5100 hc        1 MOL     -0.020700
     90 H38         8.5270    1.0090   -3.0720 hc        1 MOL     -0.020700
     91 H39        10.5340    3.2820   -3.2960 hn        1 MOL      0.333908
     92 H40        10.3680    3.6680   -5.0480 hn        1 MOL      0.333908
     93 N9          6.1100    2.8540    1.3420 n         1 MOL     -0.442107
     94 C30         5.6770    3.4210    2.6570 c3        1 MOL     -0.106838
     95 C31         4.2390    3.2670    3.0320 c         1 MOL      0.606215
     96 O16         3.7790    4.0140    3.8990 o         1 MOL     -0.596259
     97 C32         6.5600    2.8750    3.8120 c3        1 MOL      0.324318
     98 C33         6.4910    1.3460    4.0580 c3        1 MOL     -0.421740
     99 C34         8.0060    3.3660    3.6230 c3        1 MOL     -0.421740
    100 H41         5.9100    1.8780    1.1720 hn        1 MOL      0.261394
    101 H42         5.8850    4.4960    2.6800 h1        1 MOL      0.121300
    102 H43         6.1990    3.2600    4.7620 hc        1 MOL     -0.038136
    103 H44         5.5420    1.1430    4.5370 hc        1 MOL      0.101382
    104 H45         6.6860    0.7780    3.1410 hc        1 MOL      0.101382
    105 H46         7.2470    1.1020    4.8140 hc        1 MOL      0.101382
    106 H47         8.5760    2.7190    2.9590 hc        1 MOL      0.101382
    107 H48         7.9700    4.4130    3.3400 hc        1 MOL      0.101382
    108 H49         8.4670    3.2160    4.5920 hc        1 MOL      0.101382
    109 N10         3.4970    2.4320    2.2860 n         1 MOL     -0.427476
    110 C35         2.0400    2.2430    2.2300 c3        1 MOL      0.162930
    111 C36         1.4970    2.7560    0.8390 c         1 MOL      0.546011
    112 O17         2.2140    2.8980   -0.1030 o         1 MOL     -0.511632
    113 C37         1.7260    0.7460    2.4050 c3        1 MOL     -0.022922
    114 C38         0.2570    0.3460    2.6030 c         1 MOL      0.419500
    115 N11        -0.1770   -0.5770    1.7750 n         1 MOL     -0.588169
    116 O18        -0.4980    0.9110    3.4350 o         1 MOL     -0.557759
    117 H50         3.9840    1.9890    1.5220 hn        1 MOL      0.232984
    118 H51         1.4630    2.8290    2.9550 h1        1 MOL      0.028896
    119 H52         2.3440    0.4380    3.2460 hc        1 MOL      0.030713
    120 H53         2.1590    0.0900    1.6560 hc        1 MOL      0.030713
    121 H54         0.3920   -1.0620    1.0990 hn        1 MOL      0.329015
    122 H55        -1.1690   -0.7820    1.8210 hn        1 MOL      0.329015
    123 N12         0.1480    2.8320    0.7640 n         1 MOL     -0.489640
    124 C39        -0.5720    3.5300   -0.2580 c3        1 MOL      0.056207
    125 C40        -2.0110    4.0160    0.1750 c         1 MOL      0.571607
    126 O19        -2.6200    3.4510    1.1190 o         1 MOL     -0.582505
    127 C41        -0.5520    2.6880   -1.5560 c3        1 MOL     -0.168848
    128 C42        -1.7500    1.7970   -1.9780 ca        1 MOL      0.064498
    129 C43        -2.3030    0.8150   -1.0980 ca        1 MOL     -0.203031
    130 C44        -2.2300    1.9440   -3.3080 ca        1 MOL     -0.203031
    131 C45        -3.3750   -0.0130   -1.6350 ca        1 MOL     -0.088606
    132 C46        -3.2010    1.1320   -3.8240 ca        1 MOL     -0.088606
    133 C47        -3.8180    0.1490   -2.9970 ca        1 MOL     -0.004071
    134 O20        -4.7900   -0.5910   -3.4130 oh        1 MOL     -0.415866
    135 H56        -0.2760    2.5370    1.6260 hn        1 MOL      0.295373
    136 H57        -0.0190    4.4550   -0.4350 h1        1 MOL      0.070956
    137 H58         0.3810    2.1210   -1.4760 hc        1 MOL      0.091877
    138 H59        -0.3440    3.3060   -2.4270 hc        1 MOL      0.091877
    139 H60        -2.0570    0.7910   -0.0530 ha        1 MOL      0.127024
    140 H61        -1.8500    2.6970   -3.9830 ha        1 MOL      0.127024
    141 H62        -3.8850   -0.7710   -1.0500 ha        1 MOL      0.095481
    142 H63        -3.4690    1.1220   -4.8690 ha        1 MOL      0.095481
    143 H64        -4.8270   -1.2690   -2.7300 ho        1 MOL      0.493346
    144 N13        -2.5020    5.0760   -0.4760 n         1 MOL     -0.612134
    145 C48        -3.8650    5.4450   -0.3230 c3        1 MOL      0.271128
    146 C49        -4.7850    4.6760   -1.2550 c         1 MOL      0.543762
    147 O21        -4.6140    4.8810   -2.4790 o         1 MOL     -0.580918
    148 C50        -3.9660    6.9320   -0.5020 c3        1 MOL      0.031102
    149 C51        -3.3360    7.8340    0.4990 c3        1 MOL     -0.168637
    150 C52        -3.4330    9.3170    0.0310 c         1 MOL      0.739403
    151 O22        -2.6780    9.7590   -0.8170 o         1 MOL     -0.710702
    152 O23        -4.2060   10.0450    0.6700 o         1 MOL     -0.710702
    153 H65        -2.0090    5.3990   -1.2960 hn        1 MOL      0.351070
    154 H66        -4.2290    5.3250    0.6970 h1        1 MOL      0.046641
    155 H67        -5.0070    7.2790   -0.4960 hc        1 MOL     -0.010222
    156 H68        -3.5010    7.2260   -1.4360 hc        1 MOL     -0.010222
    157 H69        -2.2580    7.6650    0.4990 hc        1 MOL      0.006339
    158 H70        -3.7470    7.6700    1.5020 hc        1 MOL      0.006339
    159 N14        -5.8640    4.0980   -0.7790 n         1 MOL     -0.580183
    160 C53        -5.9910    3.4650    0.5370 c3        1 MOL      0.006520
    161 C54        -6.4660    4.3490    1.6820 c         1 MOL      0.602800
    162 O24        -7.2730    5.2650    1.5490 o         1 MOL     -0.539174
    163 C55        -6.7640    2.1190    0.5210 c3        1 MOL     -0.101453
    164 C56        -6.0510    1.0110   -0.2140 c3        1 MOL      0.009741
    165 C57        -6.9290   -0.1690   -0.6400 c         1 MOL      0.792879
    166 O25        -7.2370   -1.1480    0.1090 o         1 MOL     -0.792844
    167 O26        -7.5050   -0.1670   -1.7550 o         1 MOL     -0.792844
    168 H71        -6.5490    3.8190   -1.4680 hn        1 MOL      0.345376
    169 H72        -5.0100    3.0670    0.7730 h1        1 MOL      0.082066
    170 H73        -7.6990    2.2430   -0.0250 hc        1 MOL      0.001518
    171 H74        -7.0860    1.8410    1.5190 hc        1 MOL      0.001518
    172 H75        -5.2380    0.6510    0.4060 hc        1 MOL      0.073159
    173 H76        -5.6120    1.4880   -1.0920 hc        1 MOL      0.073159
    174 N15        -5.8950    4.0670    2.8800 n         1 MOL     -0.416319
    175 C58        -6.0380    4.8220    4.1800 c3        1 MOL     -0.225217
    176 H77        -7.0060    5.3230    4.2040 h1        1 MOL      0.108401
    177 H78        -5.9700    4.1250    5.0150 h1        1 MOL      0.108401
    178 H79        -5.2440    5.5640    4.2590 h1        1 MOL      0.108401
    179 H80        -5.2020    3.3320    2.9430 hn        1 MOL      0.315757
    180 Ca1        -8.0080   -2.9270   -1.6390 Ca        1 MOL      1.684020
    181 O27        -9.2620   -5.3300   -2.3870 oh        1 MOL     -0.802570
    182 H81        -9.8040   -5.9020   -1.8470 ho        1 MOL      0.383839
    183 H82        -9.2230   -5.7620   -3.2390 ho        1 MOL      0.383839
    184 O28       -10.5700   -2.2730   -0.7540 oh        1 MOL     -0.802570
    185 H83       -11.4720   -2.5450   -0.5830 ho        1 MOL      0.383839
    186 H84       -10.4150   -1.5750   -0.1200 ho        1 MOL      0.383839
    187 O29        -7.2970   -3.5070   -4.2390 oh        1 MOL     -0.802570
    188 H85        -6.3590   -3.6750   -4.2060 ho        1 MOL      0.383839
    189 H86        -7.5410   -3.6770   -5.1480 ho        1 MOL      0.383839
    190 O30        -9.5590   -1.7390   -3.6090 oh        1 MOL     -0.802570
    191 H87        -9.8420   -0.8340   -3.4930 ho        1 MOL      0.383839
    192 H88       -10.0320   -2.0400   -4.3840 ho        1 MOL      0.383839
@<TRIPOS>BOND
     1    1    2 1   
     2    1    4 1   
     3    1    5 1   
     4    1    6 1   
     5    2    3 2   
     6    2    7 1   
     7    7    8 1   
     8    7   15 1   
     9    8    9 1   
    10    8   11 1   
    11    8   16 1   
    12    9   10 2   
    13    9   19 1   
    14   11   12 1   
    15   11   17 1   
    16   11   18 1   
    17   12   13 1   
    18   12   14 1   
    19   19   20 1   
    20   19   27 1   
    21   20   21 1   
    22   20   23 1   
    23   20   28 1   
    24   21   22 2   
    25   21   38 1   
    26   23   24 1   
    27   23   25 1   
    28   23   29 1   
    29   24   26 1   
    30   24   30 1   
    31   24   31 1   
    32   25   32 1   
    33   25   33 1   
    34   25   34 1   
    35   26   35 1   
    36   26   36 1   
    37   26   37 1   
    38   38   39 1   
    39   38   46 1   
    40   39   40 1   
    41   39   42 1   
    42   39   47 1   
    43   40   41 2   
    44   40   50 1   
    45   42   43 1   
    46   42   48 1   
    47   42   49 1   
    48   43   44 1   
    49   43   45 1   
    50   50   51 1   
    51   50   54 1   
    52   51   52 1   
    53   51   55 1   
    54   51   56 1   
    55   52   53 2   
    56   52   57 1   
    57   57   58 1   
    58   57   65 1   
    59   58   59 1   
    60   58   61 1   
    61   58   66 1   
    62   59   60 2   
    63   59   69 1   
    64   61   62 1   
    65   61   67 1   
    66   61   68 1   
    67   62   63 1   
    68   62   64 1   
    69   69   70 1   
    70   69   73 1   
    71   70   71 1   
    72   70   74 1   
    73   70   75 1   
    74   71   72 2   
    75   71   76 1   
    76   76   77 1   
    77   76   85 1   
    78   77   78 1   
    79   77   80 1   
    80   77   86 1   
    81   78   79 2   
    82   78   93 1   
    83   80   81 1   
    84   80   87 1   
    85   80   88 1   
    86   81   82 1   
    87   81   89 1   
    88   81   90 1   
    89   82   83 1   
    90   82   84 2   
    91   83   91 1   
    92   83   92 1   
    93   93   94 1   
    94   93  100 1   
    95   94   95 1   
    96   94   97 1   
    97   94  101 1   
    98   95   96 2   
    99   95  109 1   
   100   97   98 1   
   101   97   99 1   
   102   97  102 1   
   103   98  103 1   
   104   98  104 1   
   105   98  105 1   
   106   99  106 1   
   107   99  107 1   
   108   99  108 1   
   109  109  110 1   
   110  109  117 1   
   111  110  111 1   
   112  110  113 1   
   113  110  118 1   
   114  111  112 2   
   115  111  123 1   
   116  113  114 1   
   117  113  119 1   
   118  113  120 1   
   119  114  115 1   
   120  114  116 2   
   121  115  121 1   
   122  115  122 1   
   123  123  124 1   
   124  123  135 1   
   125  124  125 1   
   126  124  127 1   
   127  124  136 1   
   128  125  126 2   
   129  125  144 1   
   130  127  128 1   
   131  127  137 1   
   132  127  138 1   
   133  128  129 ar  
   134  128  130 ar  
   135  129  131 ar  
   136  129  139 1   
   137  130  132 ar  
   138  130  140 1   
   139  131  133 ar  
   140  131  141 1   
   141  132  133 ar  
   142  132  142 1   
   143  133  134 1   
   144  134  143 1   
   145  144  145 1   
   146  144  153 1   
   147  145  146 1   
   148  145  148 1   
   149  145  154 1   
   150  146  147 2   
   151  146  159 1   
   152  148  149 1   
   153  148  155 1   
   154  148  156 1   
   155  149  150 1   
   156  149  157 1   
   157  149  158 1   
   158  150  151 1   
   159  150  152 1   
   160  159  160 1   
   161  159  168 1   
   162  160  161 1   
   163  160  163 1   
   164  160  169 1   
   165  161  162 2   
   166  161  174 1   
   167  163  164 1   
   168  163  170 1   
   169  163  171 1   
   170  164  165 1   
   171  164  172 1   
   172  164  173 1   
   173  165  166 1   
   174  165  167 1   
   175  174  175 1   
   176  174  179 1   
   177  175  176 1   
   178  175  177 1   
   179  175  178 1   
   180  181  182 1   
   181  181  183 1   
   182  184  185 1   
   183  184  186 1   
   184  187  188 1   
   185  187  189 1   
   186  190  191 1   
   187  190  192 1   
@<TRIPOS>SUBSTRUCTURE
     1 MOL         1 TEMP              0 ****  ****    0 ROOT
