@<TRIPOS>MOLECULE
MOL
  188   182     1     0     0
SMALL
resp


@<TRIPOS>ATOM
      1 C1         -6.1250    2.1350   -3.9340 c3        1 MOL     -0.351125
      2 C2         -6.7370    1.7620   -2.5980 c         1 MOL      0.690098
      3 O1         -5.9710    1.2970   -1.7330 o         1 MOL     -0.570250
      4 H1         -6.6520    2.9960   -4.3470 hc        1 MOL      0.087369
      5 H2         -5.0730    2.3860   -3.7960 hc        1 MOL      0.087369
      6 H3         -6.2110    1.2930   -4.6220 hc        1 MOL      0.087369
      7 N1         -8.0650    2.0040   -2.3860 n         1 MOL     -0.656116
      8 C3         -8.7290    1.9830   -1.1000 c3        1 MOL      0.312128
      9 C4         -8.5580    0.7060   -0.2450 c         1 MOL      0.354528
     10 O2         -8.5920    0.6730    0.9700 o         1 MOL     -0.471518
     11 C5         -8.4210    3.2470   -0.3140 c3        1 MOL     -0.246440
     12 C6         -9.5170    3.5340    0.7050 c         1 MOL      0.686475
     13 O3         -9.2080    4.0350    1.8070 o         1 MOL     -0.667536
     14 O4        -10.6960    3.4710    0.3190 o         1 MOL     -0.667536
     15 H4         -8.5840    2.4500   -3.1270 hn        1 MOL      0.348712
     16 H5         -9.7870    2.0580   -1.3490 h1        1 MOL     -0.035544
     17 H6         -8.2870    4.0780   -1.0030 hc        1 MOL      0.075327
     18 H7         -7.4770    3.0530    0.2030 hc        1 MOL      0.075327
     19 N2         -8.3240   -0.4550   -0.8510 n         1 MOL     -0.264781
     20 C7         -8.1820   -1.8330   -0.3510 c3        1 MOL     -0.015367
     21 C8         -6.7250   -2.3500   -0.4490 c         1 MOL      0.623743
     22 O5         -6.5910   -3.5680   -0.4110 o         1 MOL     -0.596557
     23 C9         -9.1680   -2.8240   -1.0540 c3        1 MOL      0.156286
     24 C10       -10.6510   -2.7530   -0.7720 c3        1 MOL      0.017939
     25 C11       -11.0200   -3.5150    0.5160 c3        1 MOL      0.135042
     26 C12       -12.5180   -3.4030    0.9210 c3        1 MOL     -0.077970
     27 N3        -13.4900   -3.2850   -0.2240 n4        1 MOL     -0.126120
     28 H8         -8.2460   -0.3210   -1.8550 hn        1 MOL      0.145953
     29 H9         -8.5390   -1.7480    0.6770 h1        1 MOL      0.084248
     30 H10        -8.9400   -3.8640   -0.8560 hc        1 MOL     -0.031047
     31 H11        -9.0080   -2.7040   -2.1210 hc        1 MOL     -0.031047
     32 H12       -11.1110   -3.1900   -1.6550 hc        1 MOL     -0.028040
     33 H13       -10.9990   -1.7130   -0.7450 hc        1 MOL     -0.028040
     34 H14       -10.3930   -3.3560    1.3920 hc        1 MOL     -0.000586
     35 H15       -10.9060   -4.5430    0.1870 hc        1 MOL     -0.000586
     36 H16       -12.6640   -2.5220    1.5400 hx        1 MOL      0.099501
     37 H17       -12.8080   -4.2450    1.5600 hx        1 MOL      0.099501
     38 H18       -14.4810   -3.2220   -0.0550 hn        1 MOL      0.215421
     39 H19       -13.2590   -2.5230   -0.8520 hn        1 MOL      0.215421
     40 H20       -13.4280   -4.0820   -0.8430 hn        1 MOL      0.215421
     41 N4         -5.7120   -1.4810   -0.5590 n         1 MOL     -0.506095
     42 C13        -4.2860   -1.9760   -0.4810 c3        1 MOL     -0.068954
     43 C14        -3.9310   -2.5700    0.8650 c         1 MOL      0.595001
     44 O6         -4.1300   -1.9260    1.8970 o         1 MOL     -0.478068
     45 C15        -3.3580   -0.7900   -0.6950 c3        1 MOL     -0.200979
     46 C16        -1.9100   -1.2820   -0.7980 c         1 MOL      0.674805
     47 O7         -1.3910   -1.6600   -1.8710 o         1 MOL     -0.738946
     48 O8         -1.1450   -1.1080    0.1810 o         1 MOL     -0.738946
     49 H21        -5.8980   -0.5120   -0.7690 hn        1 MOL      0.357712
     50 H22        -4.1030   -2.7130   -1.2550 h1        1 MOL      0.077852
     51 H23        -3.5570    0.0260    0.0020 hc        1 MOL      0.090182
     52 H24        -3.6170   -0.3730   -1.6670 hc        1 MOL      0.090182
     53 N5         -3.2720   -3.7430    0.8050 n         1 MOL     -0.338409
     54 C17        -2.7750   -4.5950    1.9760 c3        1 MOL     -0.081614
     55 C18        -2.1870   -3.7220    3.0720 c         1 MOL      0.553695
     56 O9         -2.4370   -3.9590    4.2560 o         1 MOL     -0.547869
     57 H25        -3.0470   -4.1110   -0.1070 hn        1 MOL      0.250542
     58 H26        -2.0150   -5.2890    1.6410 h1        1 MOL      0.082103
     59 H27        -3.6230   -5.0920    2.4580 h1        1 MOL      0.082103
     60 N6         -1.2730   -2.7680    2.7860 n         1 MOL     -0.363927
     61 C19        -0.5780   -1.9560    3.8090 c3        1 MOL      0.089555
     62 C20        -0.9490   -0.4860    3.7720 c         1 MOL      0.422309
     63 O10        -0.3510    0.2580    4.5330 o         1 MOL     -0.539433
     64 C21         0.8590   -2.1880    3.8870 c3        1 MOL     -0.337935
     65 C22         1.6320   -1.3500    2.8910 c         1 MOL      0.521435
     66 N7          2.6410   -0.6170    3.3520 n         1 MOL     -0.599759
     67 O11         1.2300   -1.1590    1.7150 o         1 MOL     -0.604154
     68 H28        -1.0080   -2.6460    1.8150 hn        1 MOL      0.198913
     69 H29        -0.9350   -2.2840    4.7910 h1        1 MOL      0.124315
     70 H30         1.1420   -3.2300    3.6890 hc        1 MOL      0.128074
     71 H31         1.1990   -1.9020    4.8800 hc        1 MOL      0.128074
     72 H32         2.7990   -0.5470    4.3490 hn        1 MOL      0.321421
     73 H33         3.0650    0.0070    2.6830 hn        1 MOL      0.321421
     74 N8         -1.9590   -0.0740    3.0050 n         1 MOL     -0.051159
     75 C23        -2.5750    1.2450    3.0340 c3        1 MOL     -0.203112
     76 C24        -1.9590    2.1990    2.0570 c         1 MOL      0.702829
     77 O12        -1.9670    3.3630    2.3460 o         1 MOL     -0.593224
     78 H34        -2.5020   -0.7340    2.4630 hn        1 MOL      0.080226
     79 H35        -2.4500    1.7600    3.9900 h1        1 MOL      0.110747
     80 H36        -3.6340    1.2120    2.7800 h1        1 MOL      0.110747
     81 N9         -1.4200    1.7780    0.9680 n         1 MOL     -0.565431
     82 C25        -0.7540    2.5650   -0.0600 c3        1 MOL      0.207484
     83 C26         0.6210    2.0590   -0.4620 c         1 MOL      0.302253
     84 O13         0.8240    0.8390   -0.4830 o         1 MOL     -0.378615
     85 C27        -1.6350    2.7030   -1.2230 c3        1 MOL     -0.237352
     86 C28        -1.1120    3.5870   -2.3560 ca        1 MOL      0.103669
     87 C29        -0.8810    4.9450   -2.1310 ca        1 MOL     -0.177943
     88 C30        -0.8540    3.0660   -3.6110 ca        1 MOL     -0.177943
     89 C31        -0.3610    5.7850   -3.1280 ca        1 MOL     -0.263205
     90 C32        -0.4210    3.8730   -4.6170 ca        1 MOL     -0.263205
     91 C33        -0.1590    5.2400   -4.4030 ca        1 MOL      0.364091
     92 O14         0.5160    5.9400   -5.3060 oh        1 MOL     -0.481346
     93 H37        -1.3060    0.7920    0.7790 hn        1 MOL      0.328911
     94 H38        -0.5660    3.5710    0.3180 h1        1 MOL     -0.010499
     95 H39        -2.6180    3.1170   -1.0260 hc        1 MOL      0.111504
     96 H40        -1.7810    1.6880   -1.6030 hc        1 MOL      0.111504
     97 H41        -1.0630    5.3640   -1.1510 ha        1 MOL      0.146858
     98 H42        -1.0060    2.0100   -3.7550 ha        1 MOL      0.146858
     99 H43        -0.1320    6.8140   -2.9070 ha        1 MOL      0.146154
    100 H44        -0.1580    3.3380   -5.5190 ha        1 MOL      0.146154
    101 H45         0.8870    5.3960   -6.0080 ho        1 MOL      0.368102
    102 N10         1.5690    2.9230   -0.5240 n         1 MOL     -0.164020
    103 C34         2.9210    2.4740   -0.5440 c3        1 MOL     -0.075016
    104 C35         3.3630    1.9420    0.8460 c         1 MOL      0.028406
    105 O15         4.0130    0.9150    1.0510 o         1 MOL     -0.351635
    106 C36         3.8480    3.5360   -1.2060 c3        1 MOL      0.106156
    107 C37         3.3330    3.9670   -2.6320 c3        1 MOL     -0.154281
    108 C38         5.3000    2.9660   -1.1730 c3        1 MOL     -0.340087
    109 C39         3.2160    2.8030   -3.6520 c3        1 MOL      0.051916
    110 H46         1.3550    3.9090   -0.4680 hn        1 MOL      0.236068
    111 H47         2.9040    1.6220   -1.2270 h1        1 MOL      0.162404
    112 H48         3.7780    4.3870   -0.5270 hc        1 MOL     -0.019755
    113 H49         4.1290    4.5840   -3.0290 hc        1 MOL      0.064386
    114 H50         2.3590    4.4670   -2.6450 hc        1 MOL      0.064386
    115 H51         5.3800    1.9720   -1.6190 hc        1 MOL      0.105624
    116 H52         5.8870    3.7190   -1.7060 hc        1 MOL      0.105624
    117 H53         5.6570    2.8680   -0.1440 hc        1 MOL      0.105624
    118 H54         4.1610    2.3790   -3.9930 hc        1 MOL     -0.021230
    119 H55         2.5960    2.0200   -3.2160 hc        1 MOL     -0.021230
    120 H56         2.6900    3.1750   -4.5310 hc        1 MOL     -0.021230
    121 N11         3.0560    2.7690    1.8420 n         1 MOL      0.132060
    122 C40         3.2840    2.6040    3.2350 c3        1 MOL     -0.352350
    123 C41         4.7570    2.2660    3.6540 c         1 MOL      0.591791
    124 O16         4.9870    1.4700    4.5690 o         1 MOL     -0.517051
    125 C42         2.8880    3.9090    3.9010 c3        1 MOL      0.077403
    126 O17         3.3330    5.1140    3.2870 oh        1 MOL     -0.655526
    127 H57         2.4550    3.5500    1.6150 hn        1 MOL      0.187653
    128 H58         2.5710    1.8480    3.5480 h1        1 MOL      0.175114
    129 H59         3.2100    3.9540    4.9490 h1        1 MOL      0.081286
    130 H60         1.8030    3.8530    3.9800 h1        1 MOL      0.081286
    131 H61         3.0290    5.8850    3.7780 ho        1 MOL      0.450425
    132 N12         5.6970    2.8180    2.8850 n         1 MOL     -0.310786
    133 C43         7.1320    2.5100    2.9320 c3        1 MOL      0.064019
    134 C44         7.4950    0.9750    2.7590 c         1 MOL      0.456727
    135 O18         8.6660    0.6730    3.0420 o         1 MOL     -0.520327
    136 C45         7.7290    3.1020    4.2200 c3        1 MOL     -0.326678
    137 H62         5.4520    3.5810    2.2680 hn        1 MOL      0.268645
    138 H63         7.5540    3.0540    2.0860 h1        1 MOL      0.098030
    139 H64         7.4500    4.1510    4.3220 hc        1 MOL      0.103862
    140 H65         7.3920    2.6090    5.1370 hc        1 MOL      0.103862
    141 H66         8.8130    3.1210    4.1490 hc        1 MOL      0.103862
    142 N13         6.6100    0.1690    2.1670 n         1 MOL     -0.440920
    143 C46         6.7750   -1.1850    1.7450 c3        1 MOL      0.678606
    144 C47         6.9600   -1.2290    0.2080 c         1 MOL      0.226969
    145 O19         6.9880   -0.2430   -0.5060 o         1 MOL     -0.448239
    146 C48         5.7170   -2.1200    2.2780 c3        1 MOL     -0.357832
    147 H67         5.7200    0.6380    2.0770 hn        1 MOL      0.126652
    148 H68         7.6410   -1.6480    2.2340 h1        1 MOL     -0.067934
    149 H69         5.7710   -3.0870    1.7800 hc        1 MOL      0.074447
    150 H70         5.8940   -2.1510    3.3490 hc        1 MOL      0.074447
    151 H71         4.7460   -1.6250    2.1950 hc        1 MOL      0.074447
    152 N14         7.3160   -2.4120   -0.3040 n         1 MOL     -0.628755
    153 C49         7.7350   -2.7230   -1.6740 c3        1 MOL      0.031964
    154 C50         8.7470   -1.7290   -2.3750 c         1 MOL      0.519541
    155 O20         8.9390   -1.8470   -3.5530 o         1 MOL     -0.467291
    156 C51         6.4130   -3.1660   -2.3960 c3        1 MOL      0.183260
    157 C52         6.6870   -3.9120   -3.7030 c3        1 MOL     -0.388685
    158 C53         7.5390   -5.1860   -3.4910 c         1 MOL      0.791133
    159 O21         6.9440   -6.2710   -3.5670 o         1 MOL     -0.715797
    160 O22         8.7650   -5.1390   -3.4380 o         1 MOL     -0.715797
    161 H72         7.1330   -3.2110    0.2800 hn        1 MOL      0.369593
    162 H73         8.3070   -3.5940   -1.3480 h1        1 MOL      0.102208
    163 H74         5.8530   -2.2580   -2.6300 hc        1 MOL     -0.087713
    164 H75         5.7700   -3.7570   -1.7450 hc        1 MOL     -0.087713
    165 H76         7.1570   -3.2340   -4.4170 hc        1 MOL      0.079634
    166 H77         5.6840   -4.1080   -4.0760 hc        1 MOL      0.079634
    167 N15         9.4180   -0.8770   -1.6200 n         1 MOL     -0.303411
    168 C54        10.3530    0.1360   -2.1940 c3        1 MOL     -0.164927
    169 H78         9.7860    0.8710   -2.7640 h1        1 MOL      0.093346
    170 H79        10.8870    0.6380   -1.3870 h1        1 MOL      0.093346
    171 H80        11.0680   -0.3590   -2.8510 h1        1 MOL      0.093346
    172 H81         9.1640   -0.8040   -0.6460 hn        1 MOL      0.270060
    173 Ca1         1.1450   -1.8270   -0.9190 Ca        1 MOL      1.778711
    174 O23         1.1370   -0.4870   -3.3160 oh        1 MOL     -0.860064
    175 H82         1.9400   -0.5480   -3.8430 ho        1 MOL      0.428194
    176 H83         0.4340   -0.3930   -3.9630 ho        1 MOL      0.428194
    177 O24         2.9850   -3.7440   -0.0350 oh        1 MOL     -0.860064
    178 H84         2.8420   -4.6810    0.1140 ho        1 MOL      0.428194
    179 H85         3.9120   -3.6010    0.1600 ho        1 MOL      0.428194
    180 O25         2.7030   -3.2000   -2.8190 oh        1 MOL     -0.860064
    181 H86         3.1810   -3.9360   -2.4490 ho        1 MOL      0.428194
    182 H87         2.6900   -3.3770   -3.7700 ho        1 MOL      0.428194
    183 O26         0.1150   -4.3560   -1.0100 oh        1 MOL     -0.860064
    184 H88         0.1450   -4.8840   -1.8040 ho        1 MOL      0.428194
    185 H89         0.1910   -4.9780   -0.2980 ho        1 MOL      0.428194
    186 O27         3.5800   -0.8390   -1.2820 oh        1 MOL     -0.860064
    187 H90         4.4200   -0.7160   -0.8320 ho        1 MOL      0.428194
    188 H91         3.7930   -0.7650   -2.2140 ho        1 MOL      0.428194
@<TRIPOS>BOND
     1    1    2 1   
     2    1    4 1   
     3    1    5 1   
     4    1    6 1   
     5    2    3 2   
     6    2    7 1   
     7    7    8 1   
     8    7   15 1   
     9    8    9 1   
    10    8   11 1   
    11    8   16 1   
    12    9   10 2   
    13    9   19 1   
    14   11   12 1   
    15   11   17 1   
    16   11   18 1   
    17   12   13 1   
    18   12   14 1   
    19   19   20 1   
    20   19   28 1   
    21   20   21 1   
    22   20   23 1   
    23   20   29 1   
    24   21   22 2   
    25   21   41 1   
    26   23   24 1   
    27   23   30 1   
    28   23   31 1   
    29   24   25 1   
    30   24   32 1   
    31   24   33 1   
    32   25   26 1   
    33   25   34 1   
    34   25   35 1   
    35   26   27 1   
    36   26   36 1   
    37   26   37 1   
    38   27   38 1   
    39   27   39 1   
    40   27   40 1   
    41   41   42 1   
    42   41   49 1   
    43   42   43 1   
    44   42   45 1   
    45   42   50 1   
    46   43   44 2   
    47   43   53 1   
    48   45   46 1   
    49   45   51 1   
    50   45   52 1   
    51   46   47 1   
    52   46   48 1   
    53   53   54 1   
    54   53   57 1   
    55   54   55 1   
    56   54   58 1   
    57   54   59 1   
    58   55   56 2   
    59   55   60 1   
    60   60   61 1   
    61   60   68 1   
    62   61   62 1   
    63   61   64 1   
    64   61   69 1   
    65   62   63 2   
    66   62   74 1   
    67   64   65 1   
    68   64   70 1   
    69   64   71 1   
    70   65   66 1   
    71   65   67 2   
    72   66   72 1   
    73   66   73 1   
    74   74   75 1   
    75   74   78 1   
    76   75   76 1   
    77   75   79 1   
    78   75   80 1   
    79   76   77 2   
    80   76   81 1   
    81   81   82 1   
    82   81   93 1   
    83   82   83 1   
    84   82   85 1   
    85   82   94 1   
    86   83   84 2   
    87   83  102 1   
    88   85   86 1   
    89   85   95 1   
    90   85   96 1   
    91   86   87 ar  
    92   86   88 ar  
    93   87   89 ar  
    94   87   97 1   
    95   88   90 ar  
    96   88   98 1   
    97   89   91 ar  
    98   89   99 1   
    99   90   91 ar  
   100   90  100 1   
   101   91   92 1   
   102   92  101 1   
   103  102  103 1   
   104  102  110 1   
   105  103  104 1   
   106  103  106 1   
   107  103  111 1   
   108  104  105 2   
   109  104  121 1   
   110  106  107 1   
   111  106  108 1   
   112  106  112 1   
   113  107  109 1   
   114  107  113 1   
   115  107  114 1   
   116  108  115 1   
   117  108  116 1   
   118  108  117 1   
   119  109  118 1   
   120  109  119 1   
   121  109  120 1   
   122  121  122 1   
   123  121  127 1   
   124  122  123 1   
   125  122  125 1   
   126  122  128 1   
   127  123  124 2   
   128  123  132 1   
   129  125  126 1   
   130  125  129 1   
   131  125  130 1   
   132  126  131 1   
   133  132  133 1   
   134  132  137 1   
   135  133  134 1   
   136  133  136 1   
   137  133  138 1   
   138  134  135 2   
   139  134  142 1   
   140  136  139 1   
   141  136  140 1   
   142  136  141 1   
   143  142  143 1   
   144  142  147 1   
   145  143  144 1   
   146  143  146 1   
   147  143  148 1   
   148  144  145 2   
   149  144  152 1   
   150  146  149 1   
   151  146  150 1   
   152  146  151 1   
   153  152  153 1   
   154  152  161 1   
   155  153  154 1   
   156  153  156 1   
   157  153  162 1   
   158  154  155 2   
   159  154  167 1   
   160  156  157 1   
   161  156  163 1   
   162  156  164 1   
   163  157  158 1   
   164  157  165 1   
   165  157  166 1   
   166  158  159 1   
   167  158  160 1   
   168  167  168 1   
   169  167  172 1   
   170  168  169 1   
   171  168  170 1   
   172  168  171 1   
   173  174  175 1   
   174  174  176 1   
   175  177  178 1   
   176  177  179 1   
   177  180  181 1   
   178  180  182 1   
   179  183  184 1   
   180  183  185 1   
   181  186  187 1   
   182  186  188 1   
@<TRIPOS>SUBSTRUCTURE
     1 MOL         1 TEMP              0 ****  ****    0 ROOT
