@<TRIPOS>MOLECULE
MOL
  185   180     1     0     0
SMALL
resp


@<TRIPOS>ATOM
      1 C1          7.2460    0.6560    5.1670 c3        1 MOL     -0.296788
      2 C2          7.0540    1.1430    3.6620 c         1 MOL      0.681600
      3 O1          6.0080    0.9070    3.1060 o         1 MOL     -0.548623
      4 H1          8.2780    0.8230    5.4740 hc        1 MOL      0.070032
      5 H2          6.5770    1.2180    5.8190 hc        1 MOL      0.070032
      6 H3          7.0140   -0.4070    5.2370 hc        1 MOL      0.070032
      7 N1          8.1070    1.6370    3.0180 n         1 MOL     -0.515860
      8 C3          8.2410    2.1550    1.6320 c3        1 MOL      0.055663
      9 C4          7.8130    1.1310    0.6150 c         1 MOL      0.522219
     10 O2          6.7380    1.2300   -0.0230 o         1 MOL     -0.469536
     11 C5          7.6520    3.5080    1.4480 c3        1 MOL     -0.382852
     12 C6          8.2180    4.4770    2.4700 c         1 MOL      0.720397
     13 O3          7.4670    4.9870    3.3380 o         1 MOL     -0.660840
     14 O4          9.4190    4.7070    2.4150 o         1 MOL     -0.660840
     15 H4          8.9380    1.7070    3.5930 hn        1 MOL      0.316267
     16 H5          9.3070    2.2400    1.4260 h1        1 MOL      0.047370
     17 H6          6.5750    3.4750    1.6160 hc        1 MOL      0.154875
     18 H7          7.8960    3.7610    0.4140 hc        1 MOL      0.154875
     19 N2          8.6210    0.0500    0.6440 n         1 MOL     -0.533566
     20 C7          8.1690   -1.1990    0.0050 c3        1 MOL      0.078857
     21 C8          6.7230   -1.6330    0.4940 c         1 MOL      0.543841
     22 O5          6.5140   -1.8500    1.6900 o         1 MOL     -0.472045
     23 C9          9.1450   -2.2780    0.2590 c3        1 MOL     -0.252477
     24 C10         8.9190   -3.6280   -0.4550 c3        1 MOL      0.187554
     25 C11         8.9870   -3.7610   -1.9810 c3        1 MOL      0.127064
     26 C12         9.0200   -5.1060   -2.4690 c3        1 MOL     -0.125291
     27 N3          7.8480   -5.8590   -2.0560 n4        1 MOL     -0.192239
     28 H8          9.3890    0.0360    1.2960 hn        1 MOL      0.313676
     29 H9          8.0850   -1.0900   -1.0730 h1        1 MOL      0.038736
     30 H10         8.9670   -2.5780    1.2860 hc        1 MOL      0.096213
     31 H11        10.1930   -2.0250    0.1530 hc        1 MOL      0.096213
     32 H12         7.9220   -3.9870   -0.2070 hc        1 MOL     -0.055453
     33 H13         9.6480   -4.3490   -0.0790 hc        1 MOL     -0.055453
     34 H14         9.8310   -3.1560   -2.3120 hc        1 MOL      0.001133
     35 H15         8.1400   -3.2840   -2.4690 hc        1 MOL      0.001133
     36 H16         9.9110   -5.6250   -2.1190 hx        1 MOL      0.107415
     37 H17         9.0920   -5.0530   -3.5590 hx        1 MOL      0.107415
     38 H18         6.9800   -5.4980   -2.4290 hn        1 MOL      0.238997
     39 H19         7.9260   -6.7830   -2.4630 hn        1 MOL      0.238997
     40 H20         7.8500   -5.9630   -1.0470 hn        1 MOL      0.238997
     41 N4          5.7680   -1.7770   -0.4650 n         1 MOL     -0.494793
     42 C13         4.3550   -2.1710   -0.2340 c3        1 MOL      0.019517
     43 C14         3.8070   -2.9200   -1.4420 c         1 MOL      0.431068
     44 O6          4.1570   -2.6650   -2.5610 o         1 MOL     -0.451380
     45 C15         3.5130   -0.9130    0.1230 c3        1 MOL     -0.051306
     46 C16         2.0290   -1.0090    0.4140 c         1 MOL      0.443339
     47 O7          1.1810   -0.9640   -0.4780 o         1 MOL     -0.676283
     48 O8          1.5640   -1.2190    1.5720 o         1 MOL     -0.676283
     49 H21         6.0550   -1.6370   -1.4240 hn        1 MOL      0.262640
     50 H22         4.3560   -2.8270    0.6410 h1        1 MOL      0.055385
     51 H23         3.6530   -0.2490   -0.7300 hc        1 MOL      0.130764
     52 H24         4.0060   -0.4070    0.9630 hc        1 MOL      0.130764
     53 N5          2.8930   -3.9070   -1.1810 n         1 MOL     -0.216801
     54 C17         2.4710   -4.7990   -2.2110 c3        1 MOL     -0.393537
     55 C18         1.4980   -4.2330   -3.2940 c         1 MOL      0.594981
     56 O9          1.3110   -4.7020   -4.4190 o         1 MOL     -0.548532
     57 H25         2.6570   -4.0080   -0.2040 hn        1 MOL      0.193857
     58 H26         1.8910   -5.6100   -1.7610 h1        1 MOL      0.160416
     59 H27         3.3650   -5.2670   -2.6300 h1        1 MOL      0.160416
     60 N6          0.9290   -3.0450   -2.9910 n         1 MOL     -0.387979
     61 C19         0.0900   -2.2100   -3.9000 c3        1 MOL     -0.117368
     62 C20         0.5860   -0.7860   -4.0520 c         1 MOL      0.443612
     63 O10        -0.1250    0.0320   -4.6030 o         1 MOL     -0.505020
     64 C21        -1.3520   -2.4010   -3.4080 c3        1 MOL     -0.200568
     65 C22        -1.6410   -1.7130   -2.1130 c         1 MOL      0.606490
     66 N7         -1.8430   -0.4200   -2.0760 n         1 MOL     -0.640314
     67 O11        -1.6240   -2.3850   -1.0460 o         1 MOL     -0.646520
     68 H28         1.1430   -2.6180   -2.0990 hn        1 MOL      0.457326
     69 H29         0.1170   -2.6820   -4.8880 h1        1 MOL      0.160846
     70 H30        -1.6610   -3.4120   -3.1670 hc        1 MOL      0.096669
     71 H31        -2.0900   -2.0150   -4.1190 hc        1 MOL      0.096669
     72 H32        -1.8600    0.1240   -2.9270 hn        1 MOL      0.322995
     73 H33        -1.9850    0.0700   -1.2060 hn        1 MOL      0.322995
     74 N8          1.7730   -0.5420   -3.4730 n         1 MOL     -0.101355
     75 C23         2.3150    0.8310   -3.5340 c3        1 MOL     -0.415366
     76 C24         1.4670    1.8610   -2.8150 c         1 MOL      0.745612
     77 O12         1.1970    2.9000   -3.4160 o         1 MOL     -0.586163
     78 H34         2.2310   -1.3120   -3.0120 hn        1 MOL      0.086275
     79 H35         2.2660    1.1420   -4.5810 h1        1 MOL      0.159037
     80 H36         3.2880    0.7800   -3.0460 h1        1 MOL      0.159037
     81 N9          0.9470    1.5390   -1.6210 n         1 MOL     -0.473482
     82 C25         0.2190    2.5230   -0.7930 c3        1 MOL      0.062726
     83 C26        -1.0370    1.9040   -0.1240 c         1 MOL      0.431116
     84 O13        -1.0900    0.7320    0.2930 o         1 MOL     -0.376567
     85 C27         1.1580    2.9480    0.3280 c3        1 MOL     -0.184110
     86 C28         2.1430    4.0520   -0.0010 ca        1 MOL      0.062748
     87 C29         3.5500    3.9340   -0.1020 ca        1 MOL     -0.159127
     88 C30         1.5580    5.3310   -0.2300 ca        1 MOL     -0.159127
     89 C31         4.3730    5.0220   -0.5470 ca        1 MOL     -0.204917
     90 C32         2.3890    6.4570   -0.4740 ca        1 MOL     -0.204917
     91 C33         3.8170    6.2910   -0.5820 ca        1 MOL      0.302088
     92 O14         4.6650    7.3760   -0.7130 oh        1 MOL     -0.462008
     93 H37         1.0890    0.6220   -1.2340 hn        1 MOL      0.273541
     94 H38        -0.0600    3.4820   -1.2240 h1        1 MOL      0.052667
     95 H39         1.7660    2.1430    0.7310 hc        1 MOL      0.101473
     96 H40         0.5900    3.2630    1.1970 hc        1 MOL      0.101473
     97 H41         4.0200    2.9740    0.0410 ha        1 MOL      0.102454
     98 H42         0.5010    5.5080   -0.0960 ha        1 MOL      0.102454
     99 H43         5.4420    4.9700   -0.6320 ha        1 MOL      0.119403
    100 H44         1.9970    7.4650   -0.4940 ha        1 MOL      0.119403
    101 H45         4.2340    8.2300   -0.6620 ho        1 MOL      0.356390
    102 N10        -2.0300    2.8030   -0.0300 n         1 MOL     -0.573273
    103 C34        -3.3940    2.5610    0.5300 c3        1 MOL      0.480762
    104 C35        -4.1920    1.9950   -0.6360 c         1 MOL      0.074059
    105 O15        -4.8480    0.9470   -0.4940 o         1 MOL     -0.394011
    106 C36        -3.9580    3.8630    1.1560 c3        1 MOL     -0.172811
    107 C37        -3.0050    4.4740    2.2630 c3        1 MOL      0.005850
    108 C38        -5.2760    3.5000    2.0190 c3        1 MOL     -0.279364
    109 C39        -2.6720    3.6380    3.4440 c3        1 MOL     -0.130840
    110 H46        -1.9400    3.7220   -0.4230 hn        1 MOL      0.311889
    111 H47        -3.3630    1.7530    1.2670 h1        1 MOL     -0.052632
    112 H48        -4.1660    4.5590    0.3420 hc        1 MOL      0.048576
    113 H49        -3.2960    5.4160    2.7290 hc        1 MOL      0.028894
    114 H50        -2.0640    4.7990    1.8240 hc        1 MOL      0.028894
    115 H51        -5.1540    2.7560    2.8080 hc        1 MOL      0.101960
    116 H52        -5.6110    4.3620    2.6010 hc        1 MOL      0.101960
    117 H53        -6.1110    3.2760    1.3550 hc        1 MOL      0.101960
    118 H54        -1.7590    3.9980    3.9310 hc        1 MOL      0.044488
    119 H55        -3.5080    3.5800    4.1510 hc        1 MOL      0.044488
    120 H56        -2.4900    2.5960    3.1520 hc        1 MOL      0.044488
    121 N11        -4.2550    2.7100   -1.7460 n         1 MOL     -0.152890
    122 C40        -5.0600    2.3600   -2.9330 c3        1 MOL     -0.108136
    123 C41        -6.5250    2.1170   -2.6720 c         1 MOL      0.462760
    124 O16        -7.0710    1.2560   -3.3310 o         1 MOL     -0.469488
    125 C42        -4.9000    3.4460   -3.9940 c3        1 MOL      0.108246
    126 O17        -5.0980    4.6920   -3.4150 oh        1 MOL     -0.631094
    127 H57        -3.8770    3.6470   -1.7540 hn        1 MOL      0.250035
    128 H58        -4.5850    1.4320   -3.2550 h1        1 MOL      0.114809
    129 H59        -5.5320    3.2520   -4.8660 h1        1 MOL      0.066839
    130 H60        -3.9080    3.2640   -4.3810 h1        1 MOL      0.066839
    131 H61        -5.0170    5.3570   -4.1020 ho        1 MOL      0.438873
    132 N12        -7.1200    2.8310   -1.6520 n         1 MOL     -0.311446
    133 C43        -8.5110    2.4770   -1.2300 c3        1 MOL      0.123327
    134 C44        -8.7850    0.9830   -0.8510 c         1 MOL      0.479005
    135 O18        -9.8430    0.4110   -1.0650 o         1 MOL     -0.505411
    136 C45        -9.4850    2.9860   -2.2750 c3        1 MOL     -0.381846
    137 H62        -6.6590    3.6300   -1.2470 hn        1 MOL      0.274197
    138 H63        -8.7250    3.0580   -0.3300 h1        1 MOL      0.058978
    139 H64        -9.4770    2.3210   -3.1350 hc        1 MOL      0.116014
    140 H65       -10.5450    3.0220   -2.0100 hc        1 MOL      0.116014
    141 H66        -9.2660    4.0280   -2.5210 hc        1 MOL      0.116014
    142 N13        -7.7350    0.2870   -0.3780 n         1 MOL     -0.489388
    143 C46        -7.6120   -1.1890   -0.2730 c3        1 MOL      0.467867
    144 C47        -6.9150   -1.6200    1.0580 c         1 MOL      0.376442
    145 O19        -6.3200   -0.7730    1.7820 o         1 MOL     -0.503363
    146 C48        -6.9560   -1.7790   -1.5710 c3        1 MOL     -0.500085
    147 H67        -6.8690    0.7760   -0.2100 hn        1 MOL      0.154110
    148 H68        -8.6230   -1.5910   -0.2140 h1        1 MOL     -0.022226
    149 H69        -7.6050   -1.4220   -2.3810 hc        1 MOL      0.143107
    150 H70        -5.9600   -1.3470   -1.7040 hc        1 MOL      0.143107
    151 H71        -6.8210   -2.8560   -1.5430 hc        1 MOL      0.143107
    152 N14        -7.1510   -2.8700    1.4950 n         1 MOL     -0.352632
    153 C49        -6.8310   -3.3630    2.8560 c3        1 MOL     -0.247134
    154 C50        -7.3130   -2.5470    4.0410 c         1 MOL      0.462291
    155 O20        -6.8400   -2.6450    5.2070 o         1 MOL     -0.518647
    156 C51        -5.3520   -3.7390    2.8570 c3        1 MOL      0.411583
    157 C52        -4.8280   -4.6690    1.6670 c3        1 MOL     -0.183914
    158 C53        -3.2910   -4.9110    1.8830 c         1 MOL      0.697735
    159 O21        -2.4690   -3.9840    1.7610 o         1 MOL     -0.688395
    160 O22        -2.8500   -6.0440    2.1650 o         1 MOL     -0.688395
    161 H72        -7.7010   -3.5530    0.9910 hn        1 MOL      0.277772
    162 H73        -7.3420   -4.3220    2.9180 h1        1 MOL      0.135648
    163 H74        -5.1330   -4.1970    3.8130 hc        1 MOL     -0.087121
    164 H75        -4.6910   -2.8820    2.8140 hc        1 MOL     -0.087121
    165 H76        -5.1590   -4.0770    0.8130 hc        1 MOL     -0.010152
    166 H77        -5.3510   -5.6250    1.7580 hc        1 MOL     -0.010152
    167 N15        -8.3890   -1.7810    3.9250 n         1 MOL     -0.269171
    168 C54        -9.0630   -0.8660    4.9460 c3        1 MOL     -0.075061
    169 H78       -10.1450   -0.9280    4.8290 h1        1 MOL      0.077991
    170 H79        -8.7870   -1.1790    5.9530 h1        1 MOL      0.077991
    171 H80        -8.7400    0.1630    4.7820 h1        1 MOL      0.077991
    172 H81        -8.7850   -1.7600    2.9960 hn        1 MOL      0.206426
    173 Ca1        -1.0260   -1.8310    1.4620 Ca        1 MOL      1.796585
    174 O23        -0.8240    0.1150    3.2320 oh        1 MOL     -0.898450
    175 H82        -1.5000    0.2670    3.8980 ho        1 MOL      0.434683
    176 H83        -0.2640    0.8890    3.2790 ho        1 MOL      0.434683
    177 O24        -0.9170   -2.9260    3.8660 oh        1 MOL     -0.898450
    178 H84        -0.2890   -2.7290    4.5660 ho        1 MOL      0.434683
    179 H85        -1.4600   -3.6240    4.2190 ho        1 MOL      0.434683
    180 O25         0.5580   -3.8820    0.6700 oh        1 MOL     -0.898450
    181 H86         1.3300   -3.8350    1.2280 ho        1 MOL      0.434683
    182 H87         0.3130   -4.8040    0.6730 ho        1 MOL      0.434683
    183 O26        -3.6120   -1.1880    1.0100 oh        1 MOL     -0.898450
    184 H88        -4.2230   -1.1830    1.7490 ho        1 MOL      0.434683
    185 H89        -4.1070   -0.8080    0.2870 ho        1 MOL      0.434683
@<TRIPOS>BOND
     1    1    2 1   
     2    1    4 1   
     3    1    5 1   
     4    1    6 1   
     5    2    3 2   
     6    2    7 1   
     7    7    8 1   
     8    7   15 1   
     9    8    9 1   
    10    8   11 1   
    11    8   16 1   
    12    9   10 2   
    13    9   19 1   
    14   11   12 1   
    15   11   17 1   
    16   11   18 1   
    17   12   13 1   
    18   12   14 1   
    19   19   20 1   
    20   19   28 1   
    21   20   21 1   
    22   20   23 1   
    23   20   29 1   
    24   21   22 2   
    25   21   41 1   
    26   23   24 1   
    27   23   30 1   
    28   23   31 1   
    29   24   25 1   
    30   24   32 1   
    31   24   33 1   
    32   25   26 1   
    33   25   34 1   
    34   25   35 1   
    35   26   27 1   
    36   26   36 1   
    37   26   37 1   
    38   27   38 1   
    39   27   39 1   
    40   27   40 1   
    41   41   42 1   
    42   41   49 1   
    43   42   43 1   
    44   42   45 1   
    45   42   50 1   
    46   43   44 2   
    47   43   53 1   
    48   45   46 1   
    49   45   51 1   
    50   45   52 1   
    51   46   47 1   
    52   46   48 1   
    53   53   54 1   
    54   53   57 1   
    55   54   55 1   
    56   54   58 1   
    57   54   59 1   
    58   55   56 2   
    59   55   60 1   
    60   60   61 1   
    61   60   68 1   
    62   61   62 1   
    63   61   64 1   
    64   61   69 1   
    65   62   63 2   
    66   62   74 1   
    67   64   65 1   
    68   64   70 1   
    69   64   71 1   
    70   65   66 1   
    71   65   67 2   
    72   66   72 1   
    73   66   73 1   
    74   74   75 1   
    75   74   78 1   
    76   75   76 1   
    77   75   79 1   
    78   75   80 1   
    79   76   77 2   
    80   76   81 1   
    81   81   82 1   
    82   81   93 1   
    83   82   83 1   
    84   82   85 1   
    85   82   94 1   
    86   83   84 2   
    87   83  102 1   
    88   85   86 1   
    89   85   95 1   
    90   85   96 1   
    91   86   87 ar  
    92   86   88 ar  
    93   87   89 ar  
    94   87   97 1   
    95   88   90 ar  
    96   88   98 1   
    97   89   91 ar  
    98   89   99 1   
    99   90   91 ar  
   100   90  100 1   
   101   91   92 1   
   102   92  101 1   
   103  102  103 1   
   104  102  110 1   
   105  103  104 1   
   106  103  106 1   
   107  103  111 1   
   108  104  105 2   
   109  104  121 1   
   110  106  107 1   
   111  106  108 1   
   112  106  112 1   
   113  107  109 1   
   114  107  113 1   
   115  107  114 1   
   116  108  115 1   
   117  108  116 1   
   118  108  117 1   
   119  109  118 1   
   120  109  119 1   
   121  109  120 1   
   122  121  122 1   
   123  121  127 1   
   124  122  123 1   
   125  122  125 1   
   126  122  128 1   
   127  123  124 2   
   128  123  132 1   
   129  125  126 1   
   130  125  129 1   
   131  125  130 1   
   132  126  131 1   
   133  132  133 1   
   134  132  137 1   
   135  133  134 1   
   136  133  136 1   
   137  133  138 1   
   138  134  135 2   
   139  134  142 1   
   140  136  139 1   
   141  136  140 1   
   142  136  141 1   
   143  142  143 1   
   144  142  147 1   
   145  143  144 1   
   146  143  146 1   
   147  143  148 1   
   148  144  145 2   
   149  144  152 1   
   150  146  149 1   
   151  146  150 1   
   152  146  151 1   
   153  152  153 1   
   154  152  161 1   
   155  153  154 1   
   156  153  156 1   
   157  153  162 1   
   158  154  155 2   
   159  154  167 1   
   160  156  157 1   
   161  156  163 1   
   162  156  164 1   
   163  157  158 1   
   164  157  165 1   
   165  157  166 1   
   166  158  159 1   
   167  158  160 1   
   168  167  168 1   
   169  167  172 1   
   170  168  169 1   
   171  168  170 1   
   172  168  171 1   
   173  174  175 1   
   174  174  176 1   
   175  177  178 1   
   176  177  179 1   
   177  180  181 1   
   178  180  182 1   
   179  183  184 1   
   180  183  185 1   
@<TRIPOS>SUBSTRUCTURE
     1 MOL         1 TEMP              0 ****  ****    0 ROOT
