@<TRIPOS>MOLECULE
MOL
  181   177     1     0     0
SMALL
resp


@<TRIPOS>ATOM
      1 C1          1.1400   -3.3020    4.0990 c3        1 MOL     -0.310709
      2 C2          2.2550   -2.3400    3.4920 c         1 MOL      0.468329
      3 O1          2.3260   -2.1410    2.3050 o         1 MOL     -0.418278
      4 H1          1.4350   -3.6120    5.1010 hc        1 MOL      0.086144
      5 H2          0.1900   -2.7720    4.1480 hc        1 MOL      0.086144
      6 H3          1.0340   -4.1810    3.4640 hc        1 MOL      0.086144
      7 N1          3.1250   -1.7030    4.3030 n         1 MOL     -0.377938
      8 C3          4.2540   -0.8270    3.8120 c3        1 MOL     -0.008589
      9 C4          5.2710   -1.5780    2.8270 c         1 MOL      0.338262
     10 O2          5.8020   -0.8810    2.0050 o         1 MOL     -0.318829
     11 C5          4.9940   -0.1940    4.9760 c3        1 MOL     -0.048455
     12 C6          6.0980    0.6830    4.5070 c         1 MOL      0.700943
     13 O3          5.8820    1.6520    3.7760 o         1 MOL     -0.707931
     14 O4          7.2090    0.2610    4.8330 o         1 MOL     -0.707931
     15 H4          2.9990   -1.7740    5.3080 hn        1 MOL      0.260285
     16 H5          3.7700   -0.0210    3.2660 h1        1 MOL      0.072844
     17 H6          5.2920   -0.8960    5.7650 hc        1 MOL     -0.031213
     18 H7          4.3040    0.4330    5.5410 hc        1 MOL     -0.031213
     19 N2          5.4830   -2.9110    2.9690 n         1 MOL     -0.266472
     20 C7          6.4060   -3.7150    2.1760 c3        1 MOL      0.194638
     21 C8          6.3010   -3.5520    0.6580 c         1 MOL      0.472392
     22 O5          7.2740   -3.5830   -0.0400 o         1 MOL     -0.508226
     23 C9          7.8600   -3.5310    2.7510 c3        1 MOL     -0.344305
     24 H8          4.9760   -3.3300    3.7290 hn        1 MOL      0.200205
     25 H9          6.2000   -4.7610    2.3650 h1        1 MOL      0.004120
     26 H10         7.8980   -3.7460    3.8200 hc        1 MOL      0.092887
     27 H11         8.6030   -4.1380    2.2340 hc        1 MOL      0.092887
     28 H12         8.1090   -2.4860    2.6010 hc        1 MOL      0.092887
     29 N3          5.0450   -3.3020    0.1950 n         1 MOL     -0.408052
     30 C10         4.6410   -3.0240   -1.1890 c3        1 MOL      0.235174
     31 C11         5.4310   -1.7860   -1.7940 c         1 MOL      0.424179
     32 O6          5.6180   -1.6480   -3.0160 o         1 MOL     -0.475468
     33 C12         4.5340   -4.2690   -2.0440 c3        1 MOL     -0.388945
     34 C13         3.6520   -4.1370   -3.2950 c         1 MOL      0.758201
     35 O7          2.5720   -3.5900   -3.0590 o         1 MOL     -0.697272
     36 O8          4.0010   -4.6140   -4.3920 o         1 MOL     -0.697272
     37 H13         4.3310   -3.2180    0.8950 hn        1 MOL      0.099890
     38 H14         3.5960   -2.7220   -1.1170 h1        1 MOL      0.001210
     39 H15         4.0300   -5.0740   -1.5190 hc        1 MOL      0.072618
     40 H16         5.5670   -4.5670   -2.2200 hc        1 MOL      0.072618
     41 N4          5.9030   -0.8510   -0.9580 n         1 MOL     -0.099542
     42 C14         6.6450    0.3790   -1.3890 c3        1 MOL     -0.265511
     43 C15         5.7590    1.3100   -2.2480 c         1 MOL      0.569030
     44 O9          6.3700    2.0940   -2.9790 o         1 MOL     -0.569921
     45 H17         5.9590   -1.1000    0.0170 hn        1 MOL      0.119181
     46 H18         7.5220    0.0420   -1.9510 h1        1 MOL      0.128426
     47 H19         6.8830    0.8950   -0.4660 h1        1 MOL      0.128426
     48 N5          4.4170    1.2460   -2.1230 n         1 MOL     -0.167146
     49 C16         3.4100    2.0540   -2.8570 c3        1 MOL     -0.045814
     50 C17         3.3710    3.5030   -2.3620 c         1 MOL      0.451241
     51 O10         3.5100    3.7970   -1.1980 o         1 MOL     -0.506757
     52 C18         2.0510    1.3600   -2.8800 c3        1 MOL     -0.174483
     53 C19         2.0480    0.1030   -3.7520 c         1 MOL      0.487315
     54 N6          1.6520   -0.9500   -3.2330 n         1 MOL     -0.449011
     55 O11         2.5150    0.1150   -4.8620 o         1 MOL     -0.590073
     56 H20         4.1100    0.5940   -1.4160 hn        1 MOL      0.098322
     57 H21         3.8070    2.1040   -3.8740 h1        1 MOL      0.049345
     58 H22         1.2850    2.0520   -3.2420 hc        1 MOL      0.091477
     59 H23         1.8590    1.0290   -1.8480 hc        1 MOL      0.091477
     60 H24         1.2670   -1.0470   -2.3080 hn        1 MOL      0.271045
     61 H25         1.7170   -1.8330   -3.7240 hn        1 MOL      0.271045
     62 N7          3.1150    4.4210   -3.2760 n         1 MOL     -0.266968
     63 C20         3.1750    5.8600   -2.9880 c3        1 MOL     -0.358671
     64 C21         1.9270    6.3790   -2.3720 c         1 MOL      0.721728
     65 O12         0.8430    6.0470   -2.7670 o         1 MOL     -0.548325
     66 H26         3.0260    4.1740   -4.2470 hn        1 MOL      0.279624
     67 H27         3.3720    6.4130   -3.9080 h1        1 MOL      0.148473
     68 H28         4.0040    6.0410   -2.2990 h1        1 MOL      0.148473
     69 N8          1.9730    7.1710   -1.2650 n         1 MOL     -0.652816
     70 C22         0.8750    7.7880   -0.4140 c3        1 MOL     -0.004209
     71 C23        -0.1430    6.7350    0.2060 c         1 MOL      0.514939
     72 O13        -1.1940    7.0970    0.6390 o         1 MOL     -0.564440
     73 C24         1.5510    8.7150    0.5980 c3        1 MOL      0.284090
     74 C25         0.6630    9.4700    1.5470 c3        1 MOL     -0.290763
     75 O14         2.2100    7.9350    1.5570 oh        1 MOL     -0.602454
     76 H29         2.8970    7.3100   -0.8840 hn        1 MOL      0.288184
     77 H30         0.1620    8.3380   -1.0390 h1        1 MOL      0.099823
     78 H31         2.2040    9.4350    0.0990 h1        1 MOL      0.024565
     79 H32         2.9390    8.4790    1.8650 ho        1 MOL      0.402210
     80 H33        -0.2050    9.7880    0.9680 hc        1 MOL      0.067733
     81 H34         0.2640    8.7860    2.2970 hc        1 MOL      0.067733
     82 H35         1.1750   10.3340    1.9700 hc        1 MOL      0.067733
     83 N9          0.3160    5.5480    0.3690 n         1 MOL     -0.093844
     84 C26        -0.3800    4.3520    0.8650 c3        1 MOL     -0.164142
     85 C27        -0.5790    3.1950   -0.1030 c         1 MOL      0.574131
     86 O15         0.0520    3.0870   -1.1040 o         1 MOL     -0.447068
     87 C28         0.1630    3.9310    2.3350 c3        1 MOL      0.014580
     88 C29         1.4770    3.1240    2.2300 c3        1 MOL     -0.128331
     89 C30         0.2560    5.1900    3.2730 c3        1 MOL     -0.161828
     90 C31         1.7680    2.4670    3.6180 c3        1 MOL     -0.088923
     91 H36         1.2320    5.3930   -0.0090 hn        1 MOL      0.205417
     92 H37        -1.4130    4.6670    0.9980 h1        1 MOL      0.066929
     93 H38        -0.4930    3.1710    2.7840 hc        1 MOL      0.003970
     94 H39         2.3820    3.6500    1.9250 hc        1 MOL      0.117176
     95 H40         1.2240    2.3560    1.4940 hc        1 MOL      0.117176
     96 H41         0.5240    4.9570    4.3080 hc        1 MOL      0.055714
     97 H42         0.9820    5.8850    2.8580 hc        1 MOL      0.055714
     98 H43        -0.7220    5.6440    3.4390 hc        1 MOL      0.055714
     99 H44         0.9640    1.7590    3.8070 hc        1 MOL      0.026790
    100 H45         2.7540    2.0060    3.6160 hc        1 MOL      0.026790
    101 H46         1.8760    3.2310    4.3920 hc        1 MOL      0.026790
    102 N10        -1.5490    2.3350    0.2340 n         1 MOL     -0.631650
    103 C32        -1.6540    1.0520   -0.4120 c3        1 MOL      0.250940
    104 C33        -3.1110    0.6820   -0.8490 c         1 MOL      0.522083
    105 O16        -3.3110    0.0690   -1.8830 o         1 MOL     -0.541035
    106 C34        -1.0210   -0.0200    0.4330 c3        1 MOL     -0.134138
    107 C35        -0.7510   -1.2710   -0.4830 c         1 MOL      0.745093
    108 O17         0.3980   -1.5520   -0.8520 o         1 MOL     -0.741340
    109 O18        -1.5780   -2.1720   -0.6690 o         1 MOL     -0.741340
    110 H47        -2.0840    2.5950    1.0520 hn        1 MOL      0.314682
    111 H48        -1.0570    1.0520   -1.3210 h1        1 MOL      0.010475
    112 H49        -1.6870   -0.3280    1.2310 hc        1 MOL      0.032471
    113 H50        -0.0640    0.2440    0.8810 hc        1 MOL      0.032471
    114 N11        -4.0480    1.2340   -0.1390 n         1 MOL     -0.490668
    115 C36        -5.4420    1.1280   -0.4550 c3        1 MOL      0.554003
    116 C37        -6.1430    0.0500    0.4100 c         1 MOL      0.194309
    117 O19        -6.0140    0.1070    1.6350 o         1 MOL     -0.475636
    118 C38        -5.9480    2.5740   -0.2760 c3        1 MOL     -0.466754
    119 C39        -7.3960    2.5500   -0.5760 ca        1 MOL      0.210661
    120 C40        -7.8150    2.8260   -1.8810 ca        1 MOL     -0.178525
    121 C41        -8.2790    2.2380    0.4500 ca        1 MOL     -0.178525
    122 C42        -9.1660    2.8340   -2.1600 ca        1 MOL     -0.119132
    123 C43        -9.6570    2.2140    0.1840 ca        1 MOL     -0.119132
    124 C44       -10.1040    2.5720   -1.1580 ca        1 MOL     -0.157129
    125 H51        -3.8200    1.8480    0.6190 hn        1 MOL      0.238988
    126 H52        -5.4940    0.8400   -1.5000 h1        1 MOL     -0.060510
    127 H53        -5.5130    3.2210   -1.0290 hc        1 MOL      0.145529
    128 H54        -5.8600    2.8910    0.7660 hc        1 MOL      0.145529
    129 H55        -7.1770    3.0860   -2.7170 ha        1 MOL      0.132186
    130 H56        -7.8650    1.9860    1.4180 ha        1 MOL      0.132186
    131 H57        -9.4710    2.8320   -3.2050 ha        1 MOL      0.117293
    132 H58       -10.4080    1.8500    0.8660 ha        1 MOL      0.117293
    133 H59       -11.1640    2.5040   -1.3780 ha        1 MOL      0.111119
    134 N12        -7.0110   -0.7900   -0.1560 n         1 MOL     -0.118514
    135 C45        -7.8360   -1.7590    0.6580 c3        1 MOL      0.156598
    136 C46        -7.0610   -2.7180    1.6160 c         1 MOL      0.199056
    137 O20        -7.5690   -3.1620    2.6490 o         1 MOL     -0.476755
    138 C47        -8.6750   -2.4360   -0.4140 c3        1 MOL      0.117100
    139 C48        -8.8500   -1.3510   -1.4730 c3        1 MOL     -0.153695
    140 C49        -7.4500   -0.7540   -1.5440 c3        1 MOL     -0.006787
    141 H60        -8.6050   -1.2940    1.2610 h1        1 MOL      0.044621
    142 H61        -8.1240   -3.2560   -0.8860 hc        1 MOL     -0.014112
    143 H62        -9.5660   -2.8910    0.0070 hc        1 MOL     -0.014112
    144 H63        -9.1900   -1.7120   -2.4430 hc        1 MOL      0.049400
    145 H64        -9.5700   -0.6550   -1.0260 hc        1 MOL      0.049400
    146 H65        -6.7190   -1.3330   -2.1210 h1        1 MOL      0.056458
    147 H66        -7.6400    0.2760   -1.8550 h1        1 MOL      0.056458
    148 N13        -5.8530   -3.1120    1.2570 n         1 MOL     -0.142877
    149 C50        -4.9010   -3.8570    2.1250 c3        1 MOL     -0.160482
    150 C51        -4.5950   -2.9830    3.3960 c         1 MOL      0.433126
    151 O21        -4.1840   -3.5170    4.4170 o         1 MOL     -0.550436
    152 C52        -3.5870   -4.2020    1.3600 c3        1 MOL     -0.044056
    153 C53        -3.6970   -5.2090    0.1760 c3        1 MOL     -0.037168
    154 C54        -2.4800   -5.2770   -0.8040 c         1 MOL      0.633796
    155 O22        -2.5360   -4.6780   -1.9240 o         1 MOL     -0.715561
    156 O23        -1.4490   -5.8710   -0.4040 o         1 MOL     -0.715561
    157 H67        -5.5080   -2.8330    0.3540 hn        1 MOL      0.240741
    158 H68        -5.3360   -4.7730    2.5170 h1        1 MOL      0.138607
    159 H69        -2.8600   -4.7110    1.9860 hc        1 MOL      0.066561
    160 H70        -3.1130   -3.2960    0.9800 hc        1 MOL      0.066561
    161 H71        -4.6090   -5.0730   -0.4110 hc        1 MOL     -0.016348
    162 H72        -3.8290   -6.1790    0.6520 hc        1 MOL     -0.016348
    163 N14        -4.7310   -1.6520    3.4290 n         1 MOL     -0.054120
    164 C55        -4.4730   -0.7610    4.5540 c3        1 MOL     -0.291465
    165 H73        -3.4070   -0.7590    4.7790 h1        1 MOL      0.109440
    166 H74        -4.7910    0.2500    4.2990 h1        1 MOL      0.109440
    167 H75        -5.0270   -1.1070    5.4270 h1        1 MOL      0.109440
    168 H76        -4.9250   -1.2310    2.5310 hn        1 MOL      0.120150
    169 Ca1        -0.0020   -4.0330   -1.8450 Ca        1 MOL      1.767263
    170 O24        -0.9560   -2.4110   -3.8530 oh        1 MOL     -0.869515
    171 H77        -1.4070   -2.9110   -4.5260 ho        1 MOL      0.420881
    172 H78        -1.5250   -1.6590   -3.6850 ho        1 MOL      0.420881
    173 O25         1.2640   -3.9460    0.4960 oh        1 MOL     -0.869515
    174 H79         1.5300   -3.1890    1.0240 ho        1 MOL      0.420881
    175 H80         1.8700   -4.6480    0.7640 ho        1 MOL      0.420881
    176 O26        -0.0560   -5.1200   -4.2690 oh        1 MOL     -0.869515
    177 H81        -0.1740   -6.0180   -4.5840 ho        1 MOL      0.420881
    178 H82         0.5050   -4.7130   -4.9270 ho        1 MOL      0.420881
    179 O27         1.0030   -6.5360   -1.8380 oh        1 MOL     -0.869515
    180 H83         0.6010   -7.2390   -1.3340 ho        1 MOL      0.420881
    181 H84         1.6610   -6.9780   -2.3760 ho        1 MOL      0.420881
@<TRIPOS>BOND
     1    1    2 1   
     2    1    4 1   
     3    1    5 1   
     4    1    6 1   
     5    2    3 2   
     6    2    7 1   
     7    7    8 1   
     8    7   15 1   
     9    8    9 1   
    10    8   11 1   
    11    8   16 1   
    12    9   10 2   
    13    9   19 1   
    14   11   12 1   
    15   11   17 1   
    16   11   18 1   
    17   12   13 1   
    18   12   14 1   
    19   19   20 1   
    20   19   24 1   
    21   20   21 1   
    22   20   23 1   
    23   20   25 1   
    24   21   22 2   
    25   21   29 1   
    26   23   26 1   
    27   23   27 1   
    28   23   28 1   
    29   29   30 1   
    30   29   37 1   
    31   30   31 1   
    32   30   33 1   
    33   30   38 1   
    34   31   32 2   
    35   31   41 1   
    36   33   34 1   
    37   33   39 1   
    38   33   40 1   
    39   34   35 1   
    40   34   36 1   
    41   41   42 1   
    42   41   45 1   
    43   42   43 1   
    44   42   46 1   
    45   42   47 1   
    46   43   44 2   
    47   43   48 1   
    48   48   49 1   
    49   48   56 1   
    50   49   50 1   
    51   49   52 1   
    52   49   57 1   
    53   50   51 2   
    54   50   62 1   
    55   52   53 1   
    56   52   58 1   
    57   52   59 1   
    58   53   54 1   
    59   53   55 2   
    60   54   60 1   
    61   54   61 1   
    62   62   63 1   
    63   62   66 1   
    64   63   64 1   
    65   63   67 1   
    66   63   68 1   
    67   64   65 2   
    68   64   69 1   
    69   69   70 1   
    70   69   76 1   
    71   70   71 1   
    72   70   73 1   
    73   70   77 1   
    74   71   72 2   
    75   71   83 1   
    76   73   74 1   
    77   73   75 1   
    78   73   78 1   
    79   74   80 1   
    80   74   81 1   
    81   74   82 1   
    82   75   79 1   
    83   83   84 1   
    84   83   91 1   
    85   84   85 1   
    86   84   87 1   
    87   84   92 1   
    88   85   86 2   
    89   85  102 1   
    90   87   88 1   
    91   87   89 1   
    92   87   93 1   
    93   88   90 1   
    94   88   94 1   
    95   88   95 1   
    96   89   96 1   
    97   89   97 1   
    98   89   98 1   
    99   90   99 1   
   100   90  100 1   
   101   90  101 1   
   102  102  103 1   
   103  102  110 1   
   104  103  104 1   
   105  103  106 1   
   106  103  111 1   
   107  104  105 2   
   108  104  114 1   
   109  106  107 1   
   110  106  112 1   
   111  106  113 1   
   112  107  108 1   
   113  107  109 1   
   114  114  115 1   
   115  114  125 1   
   116  115  116 1   
   117  115  118 1   
   118  115  126 1   
   119  116  117 2   
   120  116  134 1   
   121  118  119 1   
   122  118  127 1   
   123  118  128 1   
   124  119  120 ar  
   125  119  121 ar  
   126  120  122 ar  
   127  120  129 1   
   128  121  123 ar  
   129  121  130 1   
   130  122  124 ar  
   131  122  131 1   
   132  123  124 ar  
   133  123  132 1   
   134  124  133 1   
   135  134  135 1   
   136  134  140 1   
   137  135  136 1   
   138  135  138 1   
   139  135  141 1   
   140  136  137 2   
   141  136  148 1   
   142  138  139 1   
   143  138  142 1   
   144  138  143 1   
   145  139  140 1   
   146  139  144 1   
   147  139  145 1   
   148  140  146 1   
   149  140  147 1   
   150  148  149 1   
   151  148  157 1   
   152  149  150 1   
   153  149  152 1   
   154  149  158 1   
   155  150  151 2   
   156  150  163 1   
   157  152  153 1   
   158  152  159 1   
   159  152  160 1   
   160  153  154 1   
   161  153  161 1   
   162  153  162 1   
   163  154  155 1   
   164  154  156 1   
   165  163  164 1   
   166  163  168 1   
   167  164  165 1   
   168  164  166 1   
   169  164  167 1   
   170  170  171 1   
   171  170  172 1   
   172  173  174 1   
   173  173  175 1   
   174  176  177 1   
   175  176  178 1   
   176  179  180 1   
   177  179  181 1   
@<TRIPOS>SUBSTRUCTURE
     1 MOL         1 TEMP              0 ****  ****    0 ROOT
