@<TRIPOS>MOLECULE
MOL
  189   185     1     0     0
SMALL
resp


@<TRIPOS>ATOM
      1 C1          5.5450    2.2680    5.6530 c3        1 MOL     -0.321909
      2 C2          4.9870    1.9330    4.2300 c         1 MOL      0.652270
      3 O1          4.4690    2.8650    3.5490 o         1 MOL     -0.560297
      4 H1          4.9690    1.7270    6.4040 hc        1 MOL      0.092867
      5 H2          6.5910    1.9690    5.7130 hc        1 MOL      0.092867
      6 H3          5.4610    3.3390    5.8330 hc        1 MOL      0.092867
      7 N1          4.9970    0.7170    3.7590 n         1 MOL     -0.650543
      8 C3          4.9470    0.4610    2.2730 c3        1 MOL      0.757888
      9 C4          3.4810    0.3450    1.7200 c         1 MOL     -0.009374
     10 O2          3.2380   -0.2150    0.6450 o         1 MOL     -0.379118
     11 C5          5.7960   -0.7290    1.8500 c3        1 MOL     -0.193094
     12 C6          7.2500   -0.8290    2.4440 c         1 MOL      0.703957
     13 O3          7.3560   -1.0700    3.6840 o         1 MOL     -0.694589
     14 O4          8.2640   -0.7890    1.6750 o         1 MOL     -0.694589
     15 H4          5.1800   -0.0910    4.3250 hn        1 MOL      0.299529
     16 H5          5.3760    1.3310    1.7930 h1        1 MOL     -0.042387
     17 H6          5.9390   -0.6030    0.7740 hc        1 MOL     -0.048865
     18 H7          5.3810   -1.6970    2.1070 hc        1 MOL     -0.048865
     19 N2          2.4740    0.9010    2.4210 n         1 MOL     -0.108392
     20 C7          1.1050    0.5500    2.3110 c3        1 MOL      0.152996
     21 C8          0.1760    1.7350    2.0630 c         1 MOL      0.332776
     22 O5          0.3740    2.7920    2.7200 o         1 MOL     -0.493931
     23 C9          0.7590   -0.3570    3.5250 c3        1 MOL     -0.293952
     24 C10         1.3220   -1.7860    3.3520 c3        1 MOL      0.124764
     25 C11         2.4060   -2.0860    4.4010 c3        1 MOL      0.025239
     26 C12         3.1620   -3.4110    4.0810 c3        1 MOL      0.081979
     27 N3          2.2630   -4.6250    4.1880 n4        1 MOL     -0.485154
     28 H8          2.6450    1.5560    3.1680 hn        1 MOL      0.202498
     29 H9          0.9310   -0.0980    1.4540 h1        1 MOL      0.084990
     30 H10        -0.3310   -0.4010    3.4720 hc        1 MOL      0.098366
     31 H11         1.0390    0.0770    4.4840 hc        1 MOL      0.098366
     32 H12         1.6750   -1.9950    2.3390 hc        1 MOL      0.009708
     33 H13         0.5190   -2.4820    3.6190 hc        1 MOL      0.009708
     34 H14         2.0420   -2.0070    5.4220 hc        1 MOL      0.005141
     35 H15         3.1320   -1.2900    4.2690 hc        1 MOL      0.005141
     36 H16         3.9690   -3.4630    4.8140 hx        1 MOL      0.062691
     37 H17         3.5940   -3.4800    3.0860 hx        1 MOL      0.062691
     38 H18         2.5690   -5.5020    3.8090 hn        1 MOL      0.350617
     39 H19         2.1630   -4.7530    5.1850 hn        1 MOL      0.350617
     40 H20         1.3960   -4.3680    3.7160 hn        1 MOL      0.350617
     41 N4         -0.8640    1.6520    1.2010 n         1 MOL     -0.028974
     42 C13        -1.4890    0.5050    0.3760 c3        1 MOL     -0.003237
     43 C14        -1.8230   -0.6880    1.2240 c         1 MOL      0.250096
     44 O6         -1.1860   -1.7220    1.1870 o         1 MOL     -0.453821
     45 C15        -0.6600    0.3170   -0.9430 c3        1 MOL     -1.786363
     46 C16        -0.6630    1.6300   -1.7680 c         1 MOL      1.181150
     47 O7          0.3140    2.4300   -1.7730 o         1 MOL     -0.767858
     48 O8         -1.6820    2.0970   -2.4090 o         1 MOL     -0.767858
     49 H21        -1.2540    2.5730    1.0690 hn        1 MOL      0.067431
     50 H22        -2.3870    0.9150   -0.0990 h1        1 MOL      0.106571
     51 H23        -1.0890   -0.5070   -1.5160 hc        1 MOL      0.664037
     52 H24         0.3570    0.0940   -0.6300 hc        1 MOL      0.664037
     53 N5         -2.9160   -0.6020    2.0140 n         1 MOL     -0.124303
     54 C17        -3.6760    0.6280    2.2950 c3        1 MOL     -0.216211
     55 C18        -4.7960    0.4580    3.3740 c         1 MOL      0.614068
     56 O9         -4.8430   -0.5600    4.0370 o         1 MOL     -0.556388
     57 H25        -3.1320   -1.4240    2.5600 hn        1 MOL      0.218406
     58 H26        -4.0460    1.1120    1.3850 h1        1 MOL      0.105251
     59 H27        -2.9370    1.3320    2.6680 h1        1 MOL      0.105251
     60 N6         -5.7190    1.3860    3.5140 n         1 MOL     -0.471318
     61 C19        -5.8820    2.5810    2.7280 c3        1 MOL      0.082118
     62 C20        -6.7730    2.3220    1.4640 c         1 MOL      0.290463
     63 O10        -7.8280    1.6480    1.6500 o         1 MOL     -0.403160
     64 C21        -6.4470    3.6670    3.5720 c3        1 MOL     -0.213369
     65 C22        -7.9060    3.5960    3.9970 c         1 MOL      0.761248
     66 O11        -8.1430    3.0840    5.0990 o         1 MOL     -0.646503
     67 O12        -8.8340    4.0550    3.3290 o         1 MOL     -0.646503
     68 H28        -6.5140    1.1720    4.1030 hn        1 MOL      0.331750
     69 H29        -4.9510    3.0140    2.3430 h1        1 MOL      0.072688
     70 H30        -6.1870    4.6040    3.0840 hc        1 MOL      0.026557
     71 H31        -5.8320    3.6840    4.4740 hc        1 MOL      0.026557
     72 N7         -6.4640    2.8040    0.2260 n         1 MOL     -0.090963
     73 C23        -7.4490    2.7820   -0.8660 c3        1 MOL     -0.209441
     74 C24        -7.4640    1.4450   -1.5080 c         1 MOL      0.526760
     75 O13        -8.5080    0.9080   -1.8720 o         1 MOL     -0.549224
     76 H32        -5.6310    3.3790    0.1470 hn        1 MOL      0.109733
     77 H33        -7.2330    3.5160   -1.6390 h1        1 MOL      0.131656
     78 H34        -8.4030    3.1270   -0.4690 h1        1 MOL      0.131656
     79 N8         -6.3800    0.6970   -1.5070 n         1 MOL     -0.255305
     80 C25        -6.3220   -0.6790   -1.8640 c3        1 MOL     -0.340951
     81 C26        -5.1560   -1.3720   -1.1990 c         1 MOL      0.656186
     82 O14        -4.0780   -0.7940   -1.0720 o         1 MOL     -0.425118
     83 C27        -6.2800   -0.9640   -3.3880 c3        1 MOL      0.603476
     84 C28        -5.6510    0.0190   -4.3550 c3        1 MOL     -0.138672
     85 O15        -7.6850   -1.0550   -3.7030 oh        1 MOL     -0.739230
     86 H35        -5.5130    1.1240   -1.2150 hn        1 MOL      0.150601
     87 H36        -7.2070   -1.1170   -1.4130 h1        1 MOL      0.177235
     88 H37        -5.8750   -1.9630   -3.5690 h1        1 MOL     -0.027814
     89 H38        -8.1640   -0.4770   -3.1120 ho        1 MOL      0.420042
     90 H39        -4.8910    0.5280   -3.7600 hc        1 MOL      0.027245
     91 H40        -5.2710   -0.4880   -5.2390 hc        1 MOL      0.027245
     92 H41        -6.3670    0.7320   -4.7530 hc        1 MOL      0.027245
     93 N9         -5.2800   -2.5820   -0.7480 n         1 MOL     -0.506595
     94 C29        -4.3100   -3.2270    0.1530 c3        1 MOL     -0.149072
     95 C30        -2.9110   -3.6870   -0.4310 c         1 MOL      0.421155
     96 O16        -2.3440   -4.6770    0.0350 o         1 MOL     -0.544684
     97 C31        -5.1180   -4.4080    0.7470 c3        1 MOL      0.533726
     98 C32        -5.5170   -5.5220   -0.3040 c3        1 MOL      0.090857
     99 C33        -6.2660   -4.0020    1.5740 c3        1 MOL     -0.330118
    100 C34        -5.3620   -6.9420    0.2860 c3        1 MOL     -0.262694
    101 H42        -6.1640   -3.0160   -0.9400 hn        1 MOL      0.217337
    102 H43        -4.0400   -2.5960    0.9910 h1        1 MOL      0.115044
    103 H44        -4.4980   -4.9130    1.4930 hc        1 MOL     -0.100780
    104 H45        -4.8270   -5.4240   -1.1410 hc        1 MOL     -0.026744
    105 H46        -6.5500   -5.3380   -0.6140 hc        1 MOL     -0.026744
    106 H47        -6.9680   -3.3310    1.0830 hc        1 MOL      0.068306
    107 H48        -6.7500   -4.8860    1.9970 hc        1 MOL      0.068306
    108 H49        -5.8360   -3.3740    2.3600 hc        1 MOL      0.068306
    109 H50        -5.8080   -7.4750   -0.5580 hc        1 MOL      0.062958
    110 H51        -4.3190   -7.2420    0.3020 hc        1 MOL      0.062958
    111 H52        -6.0390   -7.1950    1.1020 hc        1 MOL      0.062958
    112 N10        -2.3960   -2.9870   -1.4530 n         1 MOL      0.004495
    113 C35        -1.5630   -3.6410   -2.4520 c3        1 MOL     -0.320600
    114 C36        -0.0990   -3.4510   -2.2120 c         1 MOL      0.346577
    115 O17         0.7050   -3.8920   -3.0480 o         1 MOL     -0.526562
    116 C37        -1.8670   -3.1100   -3.8710 c3        1 MOL      0.446501
    117 C38        -1.8290   -1.6480   -4.1090 c3        1 MOL     -0.220975
    118 O18        -3.1800   -3.4310   -4.2210 oh        1 MOL     -0.630796
    119 H53        -2.9270   -2.1480   -1.6480 hn        1 MOL      0.027227
    120 H54        -1.6530   -4.7340   -2.4430 h1        1 MOL      0.169151
    121 H55        -1.2550   -3.6770   -4.5710 h1        1 MOL      0.004655
    122 H56        -3.3230   -4.3500   -3.9540 ho        1 MOL      0.366536
    123 H57        -1.9520   -1.4470   -5.1730 hc        1 MOL      0.068867
    124 H58        -2.5840   -1.2390   -3.4410 hc        1 MOL      0.068867
    125 H59        -0.9300   -1.1800   -3.7080 hc        1 MOL      0.068867
    126 N11         0.3980   -2.8280   -1.1040 n         1 MOL     -0.012374
    127 C39         1.8460   -2.5180   -0.8740 c3        1 MOL      0.120931
    128 C40         2.5580   -1.6910   -1.9380 c         1 MOL      0.470958
    129 O19         1.8860   -1.0480   -2.8170 o         1 MOL     -0.496458
    130 C41         2.5450   -3.7990   -0.4290 c3        1 MOL      0.293550
    131 C42         1.7770   -4.6140    0.6240 c3        1 MOL     -0.317718
    132 O20         3.7530   -3.5000    0.1960 oh        1 MOL     -0.427150
    133 H60        -0.2340   -2.4060   -0.4390 hn        1 MOL      0.128235
    134 H61         1.7720   -1.8280   -0.0280 h1        1 MOL     -0.312046
    135 H62         2.7450   -4.3890   -1.3240 h1        1 MOL      0.018918
    136 H63         4.3270   -4.2690    0.1580 ho        1 MOL      0.343588
    137 H64         0.9720   -4.0130    1.0280 hc        1 MOL      0.066697
    138 H65         1.4330   -5.5490    0.1730 hc        1 MOL      0.066697
    139 H66         2.4180   -4.9200    1.4490 hc        1 MOL      0.066697
    140 N12         3.8860   -1.6020   -1.8370 n         1 MOL     -0.395558
    141 C43         4.8760   -1.0910   -2.8140 c3        1 MOL      0.090431
    142 C44         5.2320    0.3750   -2.5520 c         1 MOL      0.521413
    143 O21         6.0970    0.9100   -3.2930 o         1 MOL     -0.604946
    144 C45         6.1160   -2.0000   -2.9990 c3        1 MOL     -0.162653
    145 C46         6.7650   -2.2650   -1.6650 c3        1 MOL      0.108975
    146 C47         7.7790   -3.3550   -1.9430 c3        1 MOL     -0.254174
    147 C48         8.5570   -3.9200   -0.7020 c3        1 MOL      0.077167
    148 N13         9.3080   -2.8850    0.0780 n4        1 MOL     -0.269203
    149 H67         4.2640   -1.8660   -0.9390 hn        1 MOL      0.095872
    150 H68         4.4680   -0.9690   -3.8150 h1        1 MOL      0.097485
    151 H69         6.8010   -1.4550   -3.6480 hc        1 MOL      0.068423
    152 H70         5.8840   -2.9690   -3.4410 hc        1 MOL      0.068423
    153 H71         5.9940   -2.6100   -0.9830 hc        1 MOL      0.037228
    154 H72         7.2990   -1.4390   -1.2050 hc        1 MOL      0.037228
    155 H73         8.5270   -2.8840   -2.5940 hc        1 MOL      0.094510
    156 H74         7.3070   -4.0580   -2.6180 hc        1 MOL      0.094510
    157 H75         9.2210   -4.7320   -0.9870 hx        1 MOL      0.047914
    158 H76         7.8220   -4.3700   -0.0370 hx        1 MOL      0.047914
    159 H77         8.7750   -2.1010    0.4320 hn        1 MOL      0.291883
    160 H78         9.6650   -3.1890    0.9710 hn        1 MOL      0.291883
    161 H79        10.0850   -2.4770   -0.4160 hn        1 MOL      0.291883
    162 N14         4.7320    1.0660   -1.5240 n         1 MOL     -0.305681
    163 C49         4.7250    2.5740   -1.4860 c3        1 MOL     -0.245916
    164 C50         6.0760    3.2310   -1.0930 c         1 MOL      0.359808
    165 O22         6.7000    2.8250   -0.1000 o         1 MOL     -0.506716
    166 C51         3.6150    2.9510   -0.4610 c3        1 MOL      1.030637
    167 C52         3.2860    4.4010   -0.1880 c3        1 MOL     -0.422967
    168 C53         2.9560    5.1110   -1.4670 c         1 MOL      0.784076
    169 O23         3.8810    5.4930   -2.2010 o         1 MOL     -0.785437
    170 O24         1.7320    5.3140   -1.7030 o         1 MOL     -0.785437
    171 H80         4.4250    0.4640   -0.7830 hn        1 MOL      0.241651
    172 H81         4.4440    2.9330   -2.4740 h1        1 MOL      0.124239
    173 H82         3.9130    2.5380    0.5070 hc        1 MOL     -0.277022
    174 H83         2.7030    2.4620   -0.7890 hc        1 MOL     -0.277022
    175 H84         4.1040    4.8710    0.3580 hc        1 MOL      0.056001
    176 H85         2.4340    4.4630    0.4940 hc        1 MOL      0.056001
    177 N15         6.5340    4.1500   -1.9070 n         1 MOL     -0.146460
    178 C54         7.7750    4.9420   -1.6940 c3        1 MOL     -0.141925
    179 H86         8.3270    5.0130   -2.6310 h1        1 MOL      0.074122
    180 H87         7.5140    5.9440   -1.3510 h1        1 MOL      0.074122
    181 H88         8.3960    4.4520   -0.9440 h1        1 MOL      0.074122
    182 H89         6.0880    4.3470   -2.8010 hn        1 MOL      0.295145
    183 Ca1        -0.7230    4.7930   -1.9070 Ca        1 MOL      1.572496
    184 O25         0.8330    5.4510   -4.4630 oh        1 MOL     -0.821221
    185 H90         1.7110    5.1280   -4.2770 ho        1 MOL      0.409979
    186 H91         0.9510    6.3790   -4.6630 ho        1 MOL      0.409979
    187 O26        -2.1740    4.6690   -3.9520 oh        1 MOL     -0.821221
    188 H92        -2.2850    3.8850   -4.4850 ho        1 MOL      0.409979
    189 H93        -2.8850    5.2450   -4.2300 ho        1 MOL      0.409979
@<TRIPOS>BOND
     1    1    2 1   
     2    1    4 1   
     3    1    5 1   
     4    1    6 1   
     5    2    3 2   
     6    2    7 1   
     7    7    8 1   
     8    7   15 1   
     9    8    9 1   
    10    8   11 1   
    11    8   16 1   
    12    9   10 2   
    13    9   19 1   
    14   11   12 1   
    15   11   17 1   
    16   11   18 1   
    17   12   13 1   
    18   12   14 1   
    19   19   20 1   
    20   19   28 1   
    21   20   21 1   
    22   20   23 1   
    23   20   29 1   
    24   21   22 2   
    25   21   41 1   
    26   23   24 1   
    27   23   30 1   
    28   23   31 1   
    29   24   25 1   
    30   24   32 1   
    31   24   33 1   
    32   25   26 1   
    33   25   34 1   
    34   25   35 1   
    35   26   27 1   
    36   26   36 1   
    37   26   37 1   
    38   27   38 1   
    39   27   39 1   
    40   27   40 1   
    41   41   42 1   
    42   41   49 1   
    43   42   43 1   
    44   42   45 1   
    45   42   50 1   
    46   43   44 2   
    47   43   53 1   
    48   45   46 1   
    49   45   51 1   
    50   45   52 1   
    51   46   47 1   
    52   46   48 1   
    53   53   54 1   
    54   53   57 1   
    55   54   55 1   
    56   54   58 1   
    57   54   59 1   
    58   55   56 2   
    59   55   60 1   
    60   60   61 1   
    61   60   68 1   
    62   61   62 1   
    63   61   64 1   
    64   61   69 1   
    65   62   63 2   
    66   62   72 1   
    67   64   65 1   
    68   64   70 1   
    69   64   71 1   
    70   65   66 1   
    71   65   67 1   
    72   72   73 1   
    73   72   76 1   
    74   73   74 1   
    75   73   77 1   
    76   73   78 1   
    77   74   75 2   
    78   74   79 1   
    79   79   80 1   
    80   79   86 1   
    81   80   81 1   
    82   80   83 1   
    83   80   87 1   
    84   81   82 2   
    85   81   93 1   
    86   83   84 1   
    87   83   85 1   
    88   83   88 1   
    89   84   90 1   
    90   84   91 1   
    91   84   92 1   
    92   85   89 1   
    93   93   94 1   
    94   93  101 1   
    95   94   95 1   
    96   94   97 1   
    97   94  102 1   
    98   95   96 2   
    99   95  112 1   
   100   97   98 1   
   101   97   99 1   
   102   97  103 1   
   103   98  100 1   
   104   98  104 1   
   105   98  105 1   
   106   99  106 1   
   107   99  107 1   
   108   99  108 1   
   109  100  109 1   
   110  100  110 1   
   111  100  111 1   
   112  112  113 1   
   113  112  119 1   
   114  113  114 1   
   115  113  116 1   
   116  113  120 1   
   117  114  115 2   
   118  114  126 1   
   119  116  117 1   
   120  116  118 1   
   121  116  121 1   
   122  117  123 1   
   123  117  124 1   
   124  117  125 1   
   125  118  122 1   
   126  126  127 1   
   127  126  133 1   
   128  127  128 1   
   129  127  130 1   
   130  127  134 1   
   131  128  129 2   
   132  128  140 1   
   133  130  131 1   
   134  130  132 1   
   135  130  135 1   
   136  131  137 1   
   137  131  138 1   
   138  131  139 1   
   139  132  136 1   
   140  140  141 1   
   141  140  149 1   
   142  141  142 1   
   143  141  144 1   
   144  141  150 1   
   145  142  143 2   
   146  142  162 1   
   147  144  145 1   
   148  144  151 1   
   149  144  152 1   
   150  145  146 1   
   151  145  153 1   
   152  145  154 1   
   153  146  147 1   
   154  146  155 1   
   155  146  156 1   
   156  147  148 1   
   157  147  157 1   
   158  147  158 1   
   159  148  159 1   
   160  148  160 1   
   161  148  161 1   
   162  162  163 1   
   163  162  171 1   
   164  163  164 1   
   165  163  166 1   
   166  163  172 1   
   167  164  165 2   
   168  164  177 1   
   169  166  167 1   
   170  166  173 1   
   171  166  174 1   
   172  167  168 1   
   173  167  175 1   
   174  167  176 1   
   175  168  169 1   
   176  168  170 1   
   177  177  178 1   
   178  177  182 1   
   179  178  179 1   
   180  178  180 1   
   181  178  181 1   
   182  184  185 1   
   183  184  186 1   
   184  187  188 1   
   185  187  189 1   
@<TRIPOS>SUBSTRUCTURE
     1 MOL         1 TEMP              0 ****  ****    0 ROOT
