@<TRIPOS>MOLECULE
MOL
  189   185     1     0     0
SMALL
resp


@<TRIPOS>ATOM
      1 C1          4.8070    4.8160   -3.4230 c3        1 MOL     -0.263330
      2 C2          5.4880    3.7990   -2.4250 c         1 MOL      0.732726
      3 O1          4.7980    3.3820   -1.5250 o         1 MOL     -0.663533
      4 H1          3.8610    5.1560   -3.0020 hc        1 MOL      0.067577
      5 H2          5.4640    5.6710   -3.5770 hc        1 MOL      0.067577
      6 H3          4.6230    4.3210   -4.3770 hc        1 MOL      0.067577
      7 N1          6.6800    3.3710   -2.7040 n         1 MOL     -0.653039
      8 C3          7.4060    2.2690   -2.0190 c3        1 MOL      0.038112
      9 C4          6.5450    1.0550   -1.7580 c         1 MOL      0.510283
     10 O2          6.0980    0.9030   -0.6040 o         1 MOL     -0.541745
     11 C5          8.1060    2.7530   -0.7530 c3        1 MOL     -0.125404
     12 C6          7.5230    3.8330    0.1460 c         1 MOL      0.778531
     13 O3          6.7450    3.5240    1.0320 o         1 MOL     -0.742899
     14 O4          8.1060    4.9340    0.1430 o         1 MOL     -0.742899
     15 H4          7.1560    3.8360   -3.4690 hn        1 MOL      0.351949
     16 H5          8.1880    1.9320   -2.6910 h1        1 MOL      0.068721
     17 H6          9.1370    3.0420   -0.9230 hc        1 MOL      0.040748
     18 H7          8.2550    1.9060   -0.0830 hc        1 MOL      0.040748
     19 N2          6.3100    0.2210   -2.7830 n         1 MOL     -0.604666
     20 C7          5.4390   -0.9030   -2.9350 c3        1 MOL      0.196751
     21 C8          6.0680   -2.1620   -2.3770 c         1 MOL      0.373473
     22 O5          6.2850   -3.1070   -3.1040 o         1 MOL     -0.551750
     23 C9          3.9680   -0.5800   -2.5680 c3        1 MOL      0.276403
     24 C10         2.8800   -1.6750   -2.6870 c3        1 MOL     -0.406245
     25 C11         3.5560    0.6450   -3.3890 c3        1 MOL     -0.224152
     26 C12         2.6580   -2.1990   -4.1070 c3        1 MOL      0.153645
     27 H8          6.6360    0.4580   -3.7110 hn        1 MOL      0.328012
     28 H9          5.4860   -1.0970   -4.0010 h1        1 MOL      0.030083
     29 H10         3.9020   -0.2960   -1.5230 hc        1 MOL     -0.060210
     30 H11         1.9150   -1.2400   -2.4280 hc        1 MOL      0.114165
     31 H12         3.1170   -2.4580   -1.9610 hc        1 MOL      0.114165
     32 H13         3.7000    0.4300   -4.4430 hc        1 MOL      0.046472
     33 H14         2.5060    0.8570   -3.1780 hc        1 MOL      0.046472
     34 H15         4.1810    1.5060   -3.1670 hc        1 MOL      0.046472
     35 H16         2.0020   -3.0660   -4.2300 hc        1 MOL     -0.046369
     36 H17         2.2420   -1.4800   -4.8160 hc        1 MOL     -0.046369
     37 H18         3.6620   -2.4280   -4.4720 hc        1 MOL     -0.046369
     38 N3          6.3960   -2.1390   -1.0620 n         1 MOL     -0.025095
     39 C13         7.1910   -3.1450   -0.3030 c3        1 MOL     -0.024610
     40 C14         6.3680   -4.4300   -0.1510 c         1 MOL      0.607705
     41 O6          6.8800   -5.4780   -0.5120 o         1 MOL     -0.591425
     42 C15         7.7420   -2.5210    0.9750 c3        1 MOL     -0.173422
     43 C16         8.7730   -3.4580    1.5990 c         1 MOL      0.697070
     44 O7          8.5980   -3.6960    2.7930 o         1 MOL     -0.719299
     45 O8          9.7800   -3.8440    0.9060 o         1 MOL     -0.719299
     46 H19         5.9840   -1.3330   -0.6070 hn        1 MOL      0.083220
     47 H20         8.0780   -3.3180   -0.9030 h1        1 MOL      0.026267
     48 H21         7.0090   -2.2410    1.7310 hc        1 MOL      0.037965
     49 H22         8.1610   -1.5930    0.6170 hc        1 MOL      0.037965
     50 N4          5.1840   -4.4640    0.4120 n         1 MOL     -0.486260
     51 C17         4.4280   -3.3380    0.9660 c3        1 MOL     -0.005276
     52 C18         3.1750   -3.8640    1.5650 c         1 MOL      0.747629
     53 O9          2.7590   -4.9920    1.3580 o         1 MOL     -0.607503
     54 H23         4.7710   -5.3800    0.5230 hn        1 MOL      0.265063
     55 H24         4.1590   -2.7650    0.0850 h1        1 MOL      0.102058
     56 H25         5.0480   -2.9340    1.7670 h1        1 MOL      0.102058
     57 N5          2.4360   -3.0680    2.3960 n         1 MOL     -0.494748
     58 C19         2.5990   -1.6690    2.7640 c3        1 MOL     -0.017656
     59 C20         2.4370   -0.7820    1.5510 c         1 MOL      0.588674
     60 O10         3.4240   -0.1560    1.1350 o         1 MOL     -0.637185
     61 C21         3.7740   -1.3390    3.6480 c3        1 MOL     -0.299264
     62 C22         3.9360   -2.2920    4.8010 c         1 MOL      0.641189
     63 O11         2.9270   -2.7790    5.3360 o         1 MOL     -0.673094
     64 O12         5.0830   -2.5920    5.1670 o         1 MOL     -0.673094
     65 H26         1.6360   -3.4920    2.8370 hn        1 MOL      0.283969
     66 H27         1.7280   -1.4870    3.3880 h1        1 MOL      0.071659
     67 H28         3.5060   -0.3280    3.9430 hc        1 MOL      0.090675
     68 H29         4.7310   -1.2630    3.1250 hc        1 MOL      0.090675
     69 N6          1.2400   -0.5970    1.0580 n         1 MOL     -0.306314
     70 C23        -0.0040   -1.3510    1.3690 c3        1 MOL     -0.208300
     71 C24        -0.4160   -2.5810    0.5680 c         1 MOL      0.403682
     72 O13         0.3160   -3.1600   -0.2770 o         1 MOL     -0.480275
     73 H30         1.1440    0.0490    0.2910 hn        1 MOL      0.247068
     74 H31        -0.7600   -0.5860    1.1950 h1        1 MOL      0.139160
     75 H32        -0.0910   -1.6490    2.4180 h1        1 MOL      0.139160
     76 N7         -1.6320   -3.1450    0.8220 n         1 MOL     -0.270220
     77 C25        -2.0330   -4.3510    0.0690 c3        1 MOL     -0.035587
     78 C26        -2.5430   -4.0390   -1.3770 c         1 MOL      0.459790
     79 O14        -2.6700   -4.9150   -2.2550 o         1 MOL     -0.560445
     80 C27        -2.9810   -5.2130    0.9390 c3        1 MOL     -0.041927
     81 C28        -4.3130   -4.6300    1.5400 c3        1 MOL     -0.210960
     82 C29        -5.4920   -4.4800    0.5590 c         1 MOL      0.620950
     83 N8         -6.2180   -5.5290    0.2370 n         1 MOL     -0.695164
     84 O15        -5.8070   -3.3930    0.0900 o         1 MOL     -0.519134
     85 H33        -2.2090   -2.7720    1.5630 hn        1 MOL      0.251859
     86 H34        -1.1410   -4.9280   -0.1660 h1        1 MOL      0.129533
     87 H35        -2.3950   -5.4280    1.8240 hc        1 MOL      0.035147
     88 H36        -3.2400   -6.1090    0.3690 hc        1 MOL      0.035147
     89 H37        -4.1780   -3.5880    1.8140 hc        1 MOL      0.080819
     90 H38        -4.5520   -5.0970    2.5070 hc        1 MOL      0.080819
     91 H39        -5.8880   -6.4120    0.6190 hn        1 MOL      0.338812
     92 H40        -6.8490   -5.4390   -0.5440 hn        1 MOL      0.338812
     93 N9         -2.7950   -2.7990   -1.6210 n         1 MOL     -0.070487
     94 C30        -3.0910   -2.2370   -2.9550 c3        1 MOL      0.005063
     95 C31        -4.4130   -1.4250   -3.1270 c         1 MOL      0.315972
     96 O16        -4.6090   -0.7150   -4.1050 o         1 MOL     -0.540828
     97 C32        -1.8940   -1.4920   -3.5030 c3        1 MOL      0.310787
     98 C33        -0.8970   -2.4480   -4.1110 c3        1 MOL     -0.355268
     99 C34        -1.2280   -0.5400   -2.5140 c3        1 MOL     -0.355268
    100 H41        -2.6260   -2.1450   -0.8630 hn        1 MOL      0.085795
    101 H42        -3.2350   -3.1280   -3.5700 h1        1 MOL      0.048830
    102 H43        -2.1820   -0.8530   -4.3360 hc        1 MOL     -0.034709
    103 H44        -0.2240   -1.8110   -4.6930 hc        1 MOL      0.092223
    104 H45        -0.2310   -2.9350   -3.3910 hc        1 MOL      0.092223
    105 H46        -1.4650   -3.1360   -4.7240 hc        1 MOL      0.092223
    106 H47        -0.5200    0.1430   -2.9810 hc        1 MOL      0.092223
    107 H48        -2.0350    0.0290   -2.0570 hc        1 MOL      0.092223
    108 H49        -0.6670   -1.0250   -1.7170 hc        1 MOL      0.092223
    109 N10        -5.3330   -1.6590   -2.2110 n         1 MOL     -0.005924
    110 C35        -6.7010   -1.0650   -2.2960 c3        1 MOL      0.012870
    111 C36        -6.8700    0.2170   -1.4400 c         1 MOL      0.558584
    112 O17        -7.8880    0.9110   -1.5690 o         1 MOL     -0.555735
    113 C37        -7.6470   -2.1380   -1.9320 c3        1 MOL     -0.456582
    114 C38        -7.4880   -3.5040   -2.5550 c         1 MOL      0.649836
    115 N11        -7.0550   -3.6000   -3.7740 n         1 MOL     -0.715730
    116 O18        -7.7720   -4.5320   -1.9470 o         1 MOL     -0.572995
    117 H50        -5.1220   -2.2820   -1.4490 hn        1 MOL      0.027086
    118 H51        -6.7810   -0.7420   -3.3390 h1        1 MOL      0.066708
    119 H52        -8.6340   -1.7670   -2.2300 hc        1 MOL      0.171210
    120 H53        -7.6820   -2.2200   -0.8480 hc        1 MOL      0.171210
    121 H54        -6.8360   -2.7230   -4.2230 hn        1 MOL      0.356559
    122 H55        -7.2030   -4.5280   -4.1690 hn        1 MOL      0.356559
    123 N12        -5.9110    0.5540   -0.6120 n         1 MOL     -0.484708
    124 C39        -6.0410    1.6980    0.3160 c3        1 MOL      0.318721
    125 C40        -4.7430    2.5060    0.6530 c         1 MOL      0.292061
    126 O19        -3.6290    2.1020    0.4010 o         1 MOL     -0.403484
    127 C41        -6.7090    1.2390    1.6090 c3        1 MOL     -0.091457
    128 C42        -8.0920    0.6820    1.5630 ca        1 MOL     -0.029960
    129 C43        -9.1590    1.5440    1.6750 ca        1 MOL     -0.011217
    130 C44        -8.2910   -0.7040    1.6080 ca        1 MOL     -0.011217
    131 C45       -10.5260    1.1180    1.6500 ca        1 MOL     -0.396929
    132 C46        -9.6270   -1.1390    1.6990 ca        1 MOL     -0.396929
    133 C47       -10.7360   -0.2920    1.6480 ca        1 MOL      0.454610
    134 O20       -11.9340   -0.7980    1.5860 oh        1 MOL     -0.511268
    135 H56        -5.0230    0.0800   -0.6130 hn        1 MOL      0.241639
    136 H57        -6.7850    2.3530   -0.1350 h1        1 MOL     -0.018783
    137 H58        -6.7530    1.9920    2.3900 hc        1 MOL      0.072227
    138 H59        -6.0560    0.5030    2.0830 hc        1 MOL      0.072227
    139 H60        -8.9630    2.6020    1.6530 ha        1 MOL      0.085563
    140 H61        -7.4070   -1.3140    1.7360 ha        1 MOL      0.085563
    141 H62       -11.4120    1.7300    1.7260 ha        1 MOL      0.152074
    142 H63        -9.8490   -2.1910    1.7280 ha        1 MOL      0.152074
    143 H64       -12.6050   -0.1400    1.3640 ho        1 MOL      0.370816
    144 N13        -4.9070    3.6260    1.3740 n         1 MOL     -0.482649
    145 C48        -3.8650    4.4690    1.9970 c3        1 MOL      0.060641
    146 C49        -2.8900    5.0980    0.9580 c         1 MOL      0.349869
    147 O21        -2.4100    6.1850    1.2840 o         1 MOL     -0.523274
    148 C50        -3.2660    3.7180    3.1810 c3        1 MOL      0.033873
    149 C51        -4.1160    3.2050    4.3460 c3        1 MOL     -0.205551
    150 C52        -3.3670    2.0310    5.0580 c         1 MOL      0.683461
    151 O22        -3.3520    2.0060    6.3050 o         1 MOL     -0.704092
    152 O23        -2.8740    1.1130    4.3340 o         1 MOL     -0.704092
    153 H65        -5.8770    3.8970    1.5390 hn        1 MOL      0.298497
    154 H66        -4.4070    5.3330    2.4020 h1        1 MOL      0.057885
    155 H67        -2.3530    4.1970    3.5470 hc        1 MOL      0.041613
    156 H68        -2.8010    2.8820    2.6460 hc        1 MOL      0.041613
    157 H69        -5.1010    3.0080    3.9360 hc        1 MOL      0.003844
    158 H70        -4.3470    3.9850    5.0830 hc        1 MOL      0.003844
    159 N14        -2.5600    4.5020   -0.2360 n         1 MOL     -0.190404
    160 C53        -1.3630    5.0670   -0.9250 c3        1 MOL     -0.072438
    161 C54        -1.7610    6.1360   -1.9330 c         1 MOL      0.425770
    162 O24        -0.9250    6.9010   -2.4230 o         1 MOL     -0.540440
    163 C55        -0.6120    3.9150   -1.5830 c3        1 MOL     -0.122527
    164 C56        -0.1870    2.7100   -0.6780 c3        1 MOL      0.412734
    165 C57         1.1830    2.8510    0.0210 c         1 MOL      0.558828
    166 O25         1.2980    3.8880    0.7760 o         1 MOL     -0.667757
    167 O26         2.1230    2.0760   -0.2540 o         1 MOL     -0.667757
    168 H71        -2.9170    3.5830   -0.4280 hn        1 MOL      0.208266
    169 H72        -0.6810    5.5130   -0.1970 h1        1 MOL      0.154697
    170 H73         0.2260    4.2650   -2.1820 hc        1 MOL      0.031307
    171 H74        -1.3770    3.4810   -2.2190 hc        1 MOL      0.031307
    172 H75        -0.0960    1.8210   -1.3080 hc        1 MOL     -0.151024
    173 H76        -0.9560    2.4450    0.0530 hc        1 MOL     -0.151024
    174 N15        -3.0660    6.3180   -2.1230 n         1 MOL     -0.206434
    175 C58        -3.7020    7.1060   -3.2280 c3        1 MOL     -0.119970
    176 H77        -4.5130    7.7110   -2.8220 h1        1 MOL      0.067896
    177 H78        -2.9580    7.7570   -3.6850 h1        1 MOL      0.067896
    178 H79        -4.1000    6.4240   -3.9790 h1        1 MOL      0.067896
    179 H80        -3.6530    5.6800   -1.6050 hn        1 MOL      0.166127
    180 Ca1         4.4240    2.2910    0.9310 Ca        1 MOL      1.818569
    181 O27         4.0780    4.8540    1.2240 oh        1 MOL     -0.903198
    182 H81         3.2510    5.3350    1.2790 ho        1 MOL      0.432229
    183 H82         4.7280    5.5120    0.9930 ho        1 MOL      0.432229
    184 O28         3.0750    2.5920    3.2560 oh        1 MOL     -0.903198
    185 H83         2.2420    3.0650    3.2450 ho        1 MOL      0.432229
    186 H84         3.2570    2.4550    4.1940 ho        1 MOL      0.432229
    187 O29         5.9520    1.0870    2.9770 oh        1 MOL     -0.903198
    188 H85         6.6280    1.6190    3.3900 ho        1 MOL      0.432229
    189 H86         5.9720    0.2540    3.4430 ho        1 MOL      0.432229
@<TRIPOS>BOND
     1    1    2 1   
     2    1    4 1   
     3    1    5 1   
     4    1    6 1   
     5    2    3 2   
     6    2    7 1   
     7    7    8 1   
     8    7   15 1   
     9    8    9 1   
    10    8   11 1   
    11    8   16 1   
    12    9   10 2   
    13    9   19 1   
    14   11   12 1   
    15   11   17 1   
    16   11   18 1   
    17   12   13 1   
    18   12   14 1   
    19   19   20 1   
    20   19   27 1   
    21   20   21 1   
    22   20   23 1   
    23   20   28 1   
    24   21   22 2   
    25   21   38 1   
    26   23   24 1   
    27   23   25 1   
    28   23   29 1   
    29   24   26 1   
    30   24   30 1   
    31   24   31 1   
    32   25   32 1   
    33   25   33 1   
    34   25   34 1   
    35   26   35 1   
    36   26   36 1   
    37   26   37 1   
    38   38   39 1   
    39   38   46 1   
    40   39   40 1   
    41   39   42 1   
    42   39   47 1   
    43   40   41 2   
    44   40   50 1   
    45   42   43 1   
    46   42   48 1   
    47   42   49 1   
    48   43   44 1   
    49   43   45 1   
    50   50   51 1   
    51   50   54 1   
    52   51   52 1   
    53   51   55 1   
    54   51   56 1   
    55   52   53 2   
    56   52   57 1   
    57   57   58 1   
    58   57   65 1   
    59   58   59 1   
    60   58   61 1   
    61   58   66 1   
    62   59   60 2   
    63   59   69 1   
    64   61   62 1   
    65   61   67 1   
    66   61   68 1   
    67   62   63 1   
    68   62   64 1   
    69   69   70 1   
    70   69   73 1   
    71   70   71 1   
    72   70   74 1   
    73   70   75 1   
    74   71   72 2   
    75   71   76 1   
    76   76   77 1   
    77   76   85 1   
    78   77   78 1   
    79   77   80 1   
    80   77   86 1   
    81   78   79 2   
    82   78   93 1   
    83   80   81 1   
    84   80   87 1   
    85   80   88 1   
    86   81   82 1   
    87   81   89 1   
    88   81   90 1   
    89   82   83 1   
    90   82   84 2   
    91   83   91 1   
    92   83   92 1   
    93   93   94 1   
    94   93  100 1   
    95   94   95 1   
    96   94   97 1   
    97   94  101 1   
    98   95   96 2   
    99   95  109 1   
   100   97   98 1   
   101   97   99 1   
   102   97  102 1   
   103   98  103 1   
   104   98  104 1   
   105   98  105 1   
   106   99  106 1   
   107   99  107 1   
   108   99  108 1   
   109  109  110 1   
   110  109  117 1   
   111  110  111 1   
   112  110  113 1   
   113  110  118 1   
   114  111  112 2   
   115  111  123 1   
   116  113  114 1   
   117  113  119 1   
   118  113  120 1   
   119  114  115 1   
   120  114  116 2   
   121  115  121 1   
   122  115  122 1   
   123  123  124 1   
   124  123  135 1   
   125  124  125 1   
   126  124  127 1   
   127  124  136 1   
   128  125  126 2   
   129  125  144 1   
   130  127  128 1   
   131  127  137 1   
   132  127  138 1   
   133  128  129 ar  
   134  128  130 ar  
   135  129  131 ar  
   136  129  139 1   
   137  130  132 ar  
   138  130  140 1   
   139  131  133 ar  
   140  131  141 1   
   141  132  133 ar  
   142  132  142 1   
   143  133  134 1   
   144  134  143 1   
   145  144  145 1   
   146  144  153 1   
   147  145  146 1   
   148  145  148 1   
   149  145  154 1   
   150  146  147 2   
   151  146  159 1   
   152  148  149 1   
   153  148  155 1   
   154  148  156 1   
   155  149  150 1   
   156  149  157 1   
   157  149  158 1   
   158  150  151 1   
   159  150  152 1   
   160  159  160 1   
   161  159  168 1   
   162  160  161 1   
   163  160  163 1   
   164  160  169 1   
   165  161  162 2   
   166  161  174 1   
   167  163  164 1   
   168  163  170 1   
   169  163  171 1   
   170  164  165 1   
   171  164  172 1   
   172  164  173 1   
   173  165  166 1   
   174  165  167 1   
   175  174  175 1   
   176  174  179 1   
   177  175  176 1   
   178  175  177 1   
   179  175  178 1   
   180  181  182 1   
   181  181  183 1   
   182  184  185 1   
   183  184  186 1   
   184  187  188 1   
   185  187  189 1   
@<TRIPOS>SUBSTRUCTURE
     1 MOL         1 TEMP              0 ****  ****    0 ROOT
