@<TRIPOS>MOLECULE
MOL
  192   187     1     0     0
SMALL
resp


@<TRIPOS>ATOM
      1 C1          9.0550    0.9720    1.6140 c3        1 MOL     -0.426081
      2 C2          7.8650    0.4580    0.8600 c         1 MOL      0.615714
      3 O1          6.7400    0.3600    1.4370 o         1 MOL     -0.610611
      4 H1          8.9020    2.0230    1.8610 hc        1 MOL      0.114600
      5 H2          9.1810    0.3980    2.5320 hc        1 MOL      0.114600
      6 H3          9.9490    0.8720    0.9960 hc        1 MOL      0.114600
      7 N1          8.0670   -0.0610   -0.3920 n         1 MOL     -0.366184
      8 C3          7.1250   -0.5890   -1.4140 c3        1 MOL     -0.208046
      9 C4          6.5630   -1.9930   -1.1840 c         1 MOL      0.647222
     10 O2          6.4620   -2.8230   -2.0100 o         1 MOL     -0.468002
     11 C5          7.8050   -0.3810   -2.7880 c3        1 MOL     -0.219386
     12 C6          9.1590   -1.0670   -2.9680 c         1 MOL      0.705397
     13 O3          9.7000   -1.1490   -4.0830 o         1 MOL     -0.653969
     14 O4          9.6810   -1.5320   -1.9200 o         1 MOL     -0.653969
     15 H4          9.0170   -0.2590   -0.6580 hn        1 MOL      0.231766
     16 H5          6.3010    0.1320   -1.3290 h1        1 MOL      0.187505
     17 H6          7.8840    0.6900   -2.9630 hc        1 MOL      0.087401
     18 H7          7.0770   -0.5630   -3.5740 hc        1 MOL      0.087401
     19 N2          6.1460   -2.2460    0.0890 n         1 MOL     -0.489629
     20 C7          5.7730   -3.6260    0.6260 c3        1 MOL      0.303232
     21 C8          4.2890   -4.0010    0.4490 c         1 MOL      0.423762
     22 O5          4.1210   -5.1860    0.2240 o         1 MOL     -0.560841
     23 C9          6.0890   -3.7180    2.1160 c3        1 MOL      0.048143
     24 C10         7.4760   -3.3040    2.5210 c3        1 MOL     -0.193103
     25 C11         7.8660   -3.8960    3.8280 c3        1 MOL     -0.132828
     26 C12         9.2960   -3.3940    4.0670 c3        1 MOL      0.197045
     27 N3          9.7960   -3.6370    5.4230 n4        1 MOL     -0.376623
     28 H8          6.1730   -1.4540    0.7150 hn        1 MOL      0.058332
     29 H9          6.2300   -4.3930   -0.0010 h1        1 MOL      0.037242
     30 H10         5.9460   -4.7750    2.3380 hc        1 MOL     -0.002846
     31 H11         5.3240   -3.1810    2.6750 hc        1 MOL     -0.002846
     32 H12         7.4360   -2.2300    2.6940 hc        1 MOL      0.104132
     33 H13         8.0980   -3.7660    1.7530 hc        1 MOL      0.104132
     34 H14         7.8100   -4.9840    3.8730 hc        1 MOL      0.064412
     35 H15         7.2110   -3.3970    4.5410 hc        1 MOL      0.064412
     36 H16         9.3270   -2.3240    3.8500 hx        1 MOL      0.037099
     37 H17        10.0350   -3.9190    3.4500 hx        1 MOL      0.037099
     38 H18         9.6020   -4.6090    5.6050 hn        1 MOL      0.296745
     39 H19        10.7930   -3.5010    5.4250 hn        1 MOL      0.296745
     40 H20         9.3830   -2.9950    6.0840 hn        1 MOL      0.296745
     41 N4          3.3210   -3.1230    0.4180 n         1 MOL     -0.329772
     42 C13         3.2720   -1.7740    0.9480 c3        1 MOL     -0.145066
     43 C14         3.5150   -0.6010    0.0250 c         1 MOL      0.156294
     44 O6          3.4380   -0.6970   -1.1590 o         1 MOL     -0.360841
     45 C15         2.0830   -1.6520    1.8940 c3        1 MOL     -0.143634
     46 C16         0.6850   -1.9190    1.2320 c         1 MOL      0.641437
     47 O7          0.6050   -1.5350    0.0220 o         1 MOL     -0.590856
     48 O8         -0.2260   -2.5330    1.7770 o         1 MOL     -0.590856
     49 H21         2.4970   -3.4390   -0.0700 hn        1 MOL      0.344286
     50 H22         4.0760   -1.7550    1.6800 h1        1 MOL      0.174070
     51 H23         2.0890   -0.7220    2.4700 hc        1 MOL      0.023735
     52 H24         2.2340   -2.4930    2.5680 hc        1 MOL      0.023735
     53 N5          3.7060    0.5410    0.6560 n         1 MOL      0.017211
     54 C17         3.9700    1.7740    0.1040 c3        1 MOL     -0.124762
     55 C18         2.9130    2.3240   -0.8220 c         1 MOL      0.437440
     56 O9          1.7240    1.8820   -0.7730 o         1 MOL     -0.509033
     57 H25         3.6110    0.4720    1.6590 hn        1 MOL      0.207937
     58 H26         4.9150    1.7300   -0.4290 h1        1 MOL      0.062977
     59 H27         4.1590    2.4630    0.9310 h1        1 MOL      0.062977
     60 N6          3.3770    3.0760   -1.8610 n         1 MOL     -0.439208
     61 C19         2.4320    3.9170   -2.5590 c3        1 MOL      0.393794
     62 C20         3.0800    5.2810   -2.8460 c         1 MOL      0.247733
     63 O10         4.3370    5.4050   -3.0630 o         1 MOL     -0.503508
     64 C21         1.9510    3.3080   -3.9020 c3        1 MOL     -0.319011
     65 C22         1.3860    1.9140   -3.8060 c         1 MOL      0.734693
     66 O11         0.2180    1.7950   -3.3650 o         1 MOL     -0.685748
     67 O12         2.0070    0.9140   -4.1610 o         1 MOL     -0.685748
     68 H28         4.3500    3.2760   -2.0370 hn        1 MOL      0.299649
     69 H29         1.4980    4.0240   -1.9900 h1        1 MOL      0.022135
     70 H30         2.7260    3.3470   -4.6570 hc        1 MOL      0.077333
     71 H31         1.1830    4.0220   -4.1780 hc        1 MOL      0.077333
     72 N7          2.3140    6.3640   -2.9570 n         1 MOL     -0.208917
     73 C23         0.8510    6.5130   -2.8290 c3        1 MOL     -0.377337
     74 C24         0.2760    6.1510   -1.4230 c         1 MOL      0.702852
     75 O13         0.9930    6.0080   -0.4500 o         1 MOL     -0.537090
     76 H32         2.7750    7.2610   -3.0000 hn        1 MOL      0.283424
     77 H33         0.3220    6.0170   -3.6520 h1        1 MOL      0.139368
     78 H34         0.7420    7.5910   -2.9400 h1        1 MOL      0.139368
     79 N8         -0.9970    5.7860   -1.3700 n         1 MOL     -0.590422
     80 C25        -1.8020    5.4230   -0.1490 c3        1 MOL     -0.030767
     81 C26        -1.2600    4.1160    0.4590 c         1 MOL      1.005322
     82 O14        -0.8290    3.2300   -0.2980 o         1 MOL     -0.740504
     83 C27        -3.2740    5.2820   -0.4700 c3        1 MOL      0.178245
     84 C28        -4.1480    4.6850    0.6060 c3        1 MOL     -0.141042
     85 O15        -3.4340    4.3280   -1.5710 oh        1 MOL     -0.638809
     86 H35        -1.3990    5.7470   -2.2930 hn        1 MOL      0.300635
     87 H36        -1.5690    6.1380    0.6470 h1        1 MOL      0.077707
     88 H37        -3.7060    6.2430   -0.7250 h1        1 MOL      0.076743
     89 H38        -3.5840    4.7340   -2.4290 ho        1 MOL      0.437256
     90 H39        -3.6770    3.8140    1.0680 hc        1 MOL      0.045064
     91 H40        -4.2300    5.4200    1.4090 hc        1 MOL      0.045064
     92 H41        -5.1490    4.4340    0.2620 hc        1 MOL      0.045064
     93 N9         -1.1740    3.9290    1.7840 n         1 MOL     -0.835530
     94 C29        -0.6160    2.7420    2.4940 c3        1 MOL     -0.054797
     95 C30        -1.3170    1.4490    2.2340 c         1 MOL      0.873379
     96 O16        -1.1190    0.8280    1.2230 o         1 MOL     -0.667824
     97 C31         0.9590    2.5550    2.4210 c3        1 MOL      0.685750
     98 C32         1.8110    3.8530    2.4110 c3        1 MOL     -0.454276
     99 C33         1.3700    1.8310    3.7110 c3        1 MOL     -0.387768
    100 C34         1.6970    4.8510    3.5870 c3        1 MOL     -0.077830
    101 H42        -1.5500    4.6210    2.4170 hn        1 MOL      0.356386
    102 H43        -0.7940    2.9540    3.5570 h1        1 MOL      0.032415
    103 H44         1.1750    1.9130    1.5770 hc        1 MOL     -0.222890
    104 H45         1.6980    4.3970    1.4740 hc        1 MOL      0.155301
    105 H46         2.8480    3.5080    2.4340 hc        1 MOL      0.155301
    106 H47         0.7210    0.9650    3.8340 hc        1 MOL      0.066086
    107 H48         2.4220    1.5830    3.5860 hc        1 MOL      0.066086
    108 H49         1.1430    2.4170    4.5950 hc        1 MOL      0.066086
    109 H50         2.3800    5.6870    3.4730 hc        1 MOL      0.032214
    110 H51         0.6760    5.2340    3.5740 hc        1 MOL      0.032214
    111 H52         1.8930    4.4130    4.5700 hc        1 MOL      0.032214
    112 N10        -2.0070    0.8540    3.2330 n         1 MOL     -0.445197
    113 C35        -2.6980   -0.4650    3.1820 c3        1 MOL     -0.059848
    114 C36        -4.2560   -0.3400    3.2080 c         1 MOL      0.519657
    115 O17        -4.9320   -1.3030    3.5520 o         1 MOL     -0.537795
    116 C37        -2.2570   -1.5330    4.2480 c3        1 MOL      0.427770
    117 C38        -2.7150   -1.1610    5.7010 c3        1 MOL     -0.157492
    118 O18        -0.8630   -1.6750    4.2000 oh        1 MOL     -0.628844
    119 H53        -2.0760    1.4400    4.0510 hn        1 MOL      0.225878
    120 H54        -2.4660   -0.8640    2.1930 h1        1 MOL      0.081325
    121 H55        -2.7930   -2.4760    4.1150 h1        1 MOL     -0.005229
    122 H56        -0.6660   -1.9810    3.3090 ho        1 MOL      0.345344
    123 H57        -3.7840   -1.0110    5.7390 hc        1 MOL      0.029209
    124 H58        -2.4750   -1.9280    6.4410 hc        1 MOL      0.029209
    125 H59        -2.3200   -0.1990    6.0470 hc        1 MOL      0.029209
    126 N11        -4.8320    0.8420    2.8460 n         1 MOL     -0.265170
    127 C39        -6.2820    0.9510    2.4680 c3        1 MOL     -0.044875
    128 C40        -6.6250    0.2090    1.1460 c         1 MOL      0.521604
    129 O19        -6.9350    0.7900    0.0950 o         1 MOL     -0.543249
    130 C41        -6.5640    2.4820    2.5080 c3        1 MOL      0.616857
    131 C42        -8.0740    2.6840    2.6160 c3        1 MOL     -0.212151
    132 O20        -6.0190    3.0750    3.6600 oh        1 MOL     -0.691053
    133 H60        -4.2280    1.6020    2.5710 hn        1 MOL      0.134417
    134 H61        -6.8360    0.5630    3.3140 h1        1 MOL      0.071798
    135 H62        -6.1590    3.0600    1.6700 h1        1 MOL     -0.123360
    136 H63        -6.2770    3.9920    3.5870 ho        1 MOL      0.408509
    137 H64        -8.4080    2.0630    3.4500 hc        1 MOL      0.031424
    138 H65        -8.2870    3.7070    2.9380 hc        1 MOL      0.031424
    139 H66        -8.4950    2.4260    1.6440 hc        1 MOL      0.031424
    140 N12        -6.4680   -1.0890    1.1810 n         1 MOL     -0.539890
    141 C43        -6.5330   -2.1570    0.1560 c3        1 MOL      0.352852
    142 C44        -5.2470   -1.9740   -0.6920 c         1 MOL      0.436363
    143 O21        -4.6360   -0.8970   -0.7890 o         1 MOL     -0.411934
    144 C45        -7.7690   -2.2740   -0.7470 c3        1 MOL     -0.625459
    145 C46        -9.1650   -2.4230   -0.1060 c3        1 MOL      0.127879
    146 C47       -10.2420   -2.4390   -1.2180 c3        1 MOL     -0.028961
    147 C48       -11.7110   -1.9790   -0.7950 c3        1 MOL     -0.173143
    148 N13       -12.4100   -2.9640    0.0410 n4        1 MOL     -0.188808
    149 H67        -6.1650   -1.4410    2.0800 hn        1 MOL      0.261342
    150 H68        -6.3110   -3.0980    0.6500 h1        1 MOL      0.042134
    151 H69        -7.6110   -3.1330   -1.3920 hc        1 MOL      0.186617
    152 H70        -7.8970   -1.2980   -1.2310 hc        1 MOL      0.186617
    153 H71        -9.3030   -1.5790    0.5610 hc        1 MOL      0.015844
    154 H72        -9.1950   -3.3320    0.5070 hc        1 MOL      0.015844
    155 H73       -10.2210   -3.3380   -1.8340 hc        1 MOL      0.063776
    156 H74        -9.9700   -1.7780   -2.0420 hc        1 MOL      0.063776
    157 H75       -12.3160   -1.9050   -1.7060 hx        1 MOL      0.140433
    158 H76       -11.7790   -1.0040   -0.3030 hx        1 MOL      0.140433
    159 H77       -12.0050   -3.2850    0.9100 hn        1 MOL      0.226797
    160 H78       -13.3180   -2.6100    0.3020 hn        1 MOL      0.226797
    161 H79       -12.5330   -3.7860   -0.5420 hn        1 MOL      0.226797
    162 N14        -4.7450   -3.0780   -1.3060 n         1 MOL     -0.591341
    163 C49        -3.5270   -3.1320   -2.1100 c3        1 MOL      0.407794
    164 C50        -2.2880   -2.8110   -1.2510 c         1 MOL      0.170397
    165 O22        -1.7240   -1.7830   -1.5880 o         1 MOL     -0.456589
    166 C51        -3.3680   -4.5490   -2.7900 c3        1 MOL      0.077302
    167 C52        -4.3160   -4.5720   -4.0340 c3        1 MOL     -0.227794
    168 C53        -3.9440   -5.8170   -4.9040 c         1 MOL      0.665109
    169 O23        -3.4380   -5.6080   -6.0300 o         1 MOL     -0.623707
    170 O24        -4.1950   -6.9860   -4.4160 o         1 MOL     -0.623707
    171 H80        -5.4030   -3.8300   -1.4650 hn        1 MOL      0.322728
    172 H81        -3.6580   -2.3570   -2.8620 h1        1 MOL     -0.043473
    173 H82        -3.5400   -5.3650   -2.0900 hc        1 MOL      0.015923
    174 H83        -2.3690   -4.6600   -3.2090 hc        1 MOL      0.015923
    175 H84        -4.1010   -3.6860   -4.6420 hc        1 MOL      0.007651
    176 H85        -5.3060   -4.6700   -3.5990 hc        1 MOL      0.007651
    177 N15        -1.9880   -3.4520   -0.0920 n         1 MOL     -0.189444
    178 C54        -2.5920   -4.7000    0.4530 c3        1 MOL      0.030477
    179 H86        -2.1230   -5.5650   -0.0140 h1        1 MOL      0.008927
    180 H87        -2.4350   -4.7400    1.5300 h1        1 MOL      0.008927
    181 H88        -3.6610   -4.7090    0.2410 h1        1 MOL      0.008927
    182 H89        -1.3380   -2.9310    0.4890 hn        1 MOL      0.236948
    183 Ca1        -0.6450    0.5820   -1.3220 Ca        1 MOL      1.774017
    184 O25        -2.3260    0.1630   -3.4080 oh        1 MOL     -0.905388
    185 H90        -1.9120   -0.4330   -4.0240 ho        1 MOL      0.432606
    186 H91        -3.2510    0.1410   -3.6470 ho        1 MOL      0.432606
    187 O26        -3.2260    1.6760   -0.8490 oh        1 MOL     -0.905388
    188 H92        -3.3630    2.6150   -0.9750 ho        1 MOL      0.432606
    189 H93        -4.0270    1.2640   -1.1740 ho        1 MOL      0.432606
    190 O27         1.2240   -1.0950   -2.6820 oh        1 MOL     -0.905388
    191 H94         1.9110   -1.1320   -2.0210 ho        1 MOL      0.432606
    192 H95         1.5540   -0.4900   -3.3480 ho        1 MOL      0.432606
@<TRIPOS>BOND
     1    1    2 1   
     2    1    4 1   
     3    1    5 1   
     4    1    6 1   
     5    2    3 2   
     6    2    7 1   
     7    7    8 1   
     8    7   15 1   
     9    8    9 1   
    10    8   11 1   
    11    8   16 1   
    12    9   10 2   
    13    9   19 1   
    14   11   12 1   
    15   11   17 1   
    16   11   18 1   
    17   12   13 1   
    18   12   14 1   
    19   19   20 1   
    20   19   28 1   
    21   20   21 1   
    22   20   23 1   
    23   20   29 1   
    24   21   22 2   
    25   21   41 1   
    26   23   24 1   
    27   23   30 1   
    28   23   31 1   
    29   24   25 1   
    30   24   32 1   
    31   24   33 1   
    32   25   26 1   
    33   25   34 1   
    34   25   35 1   
    35   26   27 1   
    36   26   36 1   
    37   26   37 1   
    38   27   38 1   
    39   27   39 1   
    40   27   40 1   
    41   41   42 1   
    42   41   49 1   
    43   42   43 1   
    44   42   45 1   
    45   42   50 1   
    46   43   44 2   
    47   43   53 1   
    48   45   46 1   
    49   45   51 1   
    50   45   52 1   
    51   46   47 1   
    52   46   48 1   
    53   53   54 1   
    54   53   57 1   
    55   54   55 1   
    56   54   58 1   
    57   54   59 1   
    58   55   56 2   
    59   55   60 1   
    60   60   61 1   
    61   60   68 1   
    62   61   62 1   
    63   61   64 1   
    64   61   69 1   
    65   62   63 2   
    66   62   72 1   
    67   64   65 1   
    68   64   70 1   
    69   64   71 1   
    70   65   66 1   
    71   65   67 1   
    72   72   73 1   
    73   72   76 1   
    74   73   74 1   
    75   73   77 1   
    76   73   78 1   
    77   74   75 2   
    78   74   79 1   
    79   79   80 1   
    80   79   86 1   
    81   80   81 1   
    82   80   83 1   
    83   80   87 1   
    84   81   82 2   
    85   81   93 1   
    86   83   84 1   
    87   83   85 1   
    88   83   88 1   
    89   84   90 1   
    90   84   91 1   
    91   84   92 1   
    92   85   89 1   
    93   93   94 1   
    94   93  101 1   
    95   94   95 1   
    96   94   97 1   
    97   94  102 1   
    98   95   96 2   
    99   95  112 1   
   100   97   98 1   
   101   97   99 1   
   102   97  103 1   
   103   98  100 1   
   104   98  104 1   
   105   98  105 1   
   106   99  106 1   
   107   99  107 1   
   108   99  108 1   
   109  100  109 1   
   110  100  110 1   
   111  100  111 1   
   112  112  113 1   
   113  112  119 1   
   114  113  114 1   
   115  113  116 1   
   116  113  120 1   
   117  114  115 2   
   118  114  126 1   
   119  116  117 1   
   120  116  118 1   
   121  116  121 1   
   122  117  123 1   
   123  117  124 1   
   124  117  125 1   
   125  118  122 1   
   126  126  127 1   
   127  126  133 1   
   128  127  128 1   
   129  127  130 1   
   130  127  134 1   
   131  128  129 2   
   132  128  140 1   
   133  130  131 1   
   134  130  132 1   
   135  130  135 1   
   136  131  137 1   
   137  131  138 1   
   138  131  139 1   
   139  132  136 1   
   140  140  141 1   
   141  140  149 1   
   142  141  142 1   
   143  141  144 1   
   144  141  150 1   
   145  142  143 2   
   146  142  162 1   
   147  144  145 1   
   148  144  151 1   
   149  144  152 1   
   150  145  146 1   
   151  145  153 1   
   152  145  154 1   
   153  146  147 1   
   154  146  155 1   
   155  146  156 1   
   156  147  148 1   
   157  147  157 1   
   158  147  158 1   
   159  148  159 1   
   160  148  160 1   
   161  148  161 1   
   162  162  163 1   
   163  162  171 1   
   164  163  164 1   
   165  163  166 1   
   166  163  172 1   
   167  164  165 2   
   168  164  177 1   
   169  166  167 1   
   170  166  173 1   
   171  166  174 1   
   172  167  168 1   
   173  167  175 1   
   174  167  176 1   
   175  168  169 1   
   176  168  170 1   
   177  177  178 1   
   178  177  182 1   
   179  178  179 1   
   180  178  180 1   
   181  178  181 1   
   182  184  185 1   
   183  184  186 1   
   184  187  188 1   
   185  187  189 1   
   186  190  191 1   
   187  190  192 1   
@<TRIPOS>SUBSTRUCTURE
     1 MOL         1 TEMP              0 ****  ****    0 ROOT
