@<TRIPOS>MOLECULE
MOL
  186   183     1     0     0
SMALL
resp


@<TRIPOS>ATOM
      1 C1        -12.3320    4.4850    4.3110 c3        1 MOL     -0.489640
      2 C2        -12.4030    3.3070    3.3180 c         1 MOL      0.603097
      3 O1        -13.0200    2.2620    3.5790 o         1 MOL     -0.573218
      4 H1        -11.5620    4.2850    5.0570 hc        1 MOL      0.130310
      5 H2        -12.0860    5.4000    3.7730 hc        1 MOL      0.130310
      6 H3        -13.2960    4.6020    4.8070 hc        1 MOL      0.130310
      7 N1        -11.8340    3.5180    2.1410 n         1 MOL      0.006213
      8 C3        -11.8910    2.5730    1.0140 c3        1 MOL     -0.624958
      9 C4        -10.7110    1.5510    1.0580 c         1 MOL      0.522059
     10 O2         -9.5930    1.8620    1.4510 o         1 MOL     -0.539843
     11 C5        -11.9490    3.3480   -0.3130 c3        1 MOL      0.342718
     12 C6        -10.8380    4.3800   -0.6060 c         1 MOL      0.555521
     13 O3         -9.9970    4.6310    0.2730 o         1 MOL     -0.655187
     14 O4        -10.8960    5.1030   -1.6170 o         1 MOL     -0.655187
     15 H4        -11.2130    4.3050    1.9680 hn        1 MOL      0.038724
     16 H5        -12.7780    1.9510    1.0410 h1        1 MOL      0.160543
     17 H6        -12.9070    3.8610   -0.1580 hc        1 MOL     -0.029176
     18 H7        -12.1150    2.7100   -1.1890 hc        1 MOL     -0.029176
     19 N2        -11.0020    0.3430    0.5570 n         1 MOL     -0.176962
     20 C7        -10.1270   -0.8570    0.8730 c3        1 MOL     -0.368579
     21 C8         -8.6040   -0.8000    0.4620 c         1 MOL      0.635822
     22 O5         -7.7180   -1.4650    1.0770 o         1 MOL     -0.482511
     23 C9        -10.7650   -2.2000    0.5020 c3        1 MOL     -0.112379
     24 C10       -10.5700   -2.4760   -1.0240 c3        1 MOL     -0.028435
     25 C11       -11.3620   -3.7720   -1.4560 c3        1 MOL     -0.005822
     26 C12       -12.8740   -3.4040   -1.5830 c3        1 MOL      0.012558
     27 N3        -13.7060   -4.6640   -1.7250 n4        1 MOL     -0.294579
     28 H8        -11.8840    0.2230    0.0690 hn        1 MOL      0.250151
     29 H9        -10.1160   -0.8960    1.9560 h1        1 MOL      0.182164
     30 H10       -11.8100   -2.0780    0.8020 hc        1 MOL      0.068818
     31 H11       -10.3080   -2.9800    1.1000 hc        1 MOL      0.068818
     32 H12        -9.5020   -2.5590   -1.2230 hc        1 MOL      0.049812
     33 H13       -11.0460   -1.6720   -1.5830 hc        1 MOL      0.049812
     34 H14       -11.2430   -4.5120   -0.6690 hc        1 MOL      0.047388
     35 H15       -11.0830   -4.3090   -2.3540 hc        1 MOL      0.047388
     36 H16       -13.0070   -2.8470   -2.5090 hx        1 MOL      0.080064
     37 H17       -13.3190   -2.8590   -0.7550 hx        1 MOL      0.080064
     38 H18       -13.2700   -5.3020   -2.3720 hn        1 MOL      0.257049
     39 H19       -13.8800   -5.2310   -0.9060 hn        1 MOL      0.257049
     40 H20       -14.5910   -4.3670   -2.1110 hn        1 MOL      0.257049
     41 N4         -8.2750    0.1090   -0.4900 n         1 MOL     -0.140801
     42 C13        -6.9030    0.3790   -1.0370 c3        1 MOL     -0.643525
     43 C14        -6.0740    1.0100    0.1440 c         1 MOL      0.129957
     44 O6         -6.5490    1.5110    1.1140 o         1 MOL     -0.499455
     45 C15        -6.8960    1.1410   -2.3700 c3        1 MOL      0.015284
     46 C16        -7.5630    2.5450   -2.3220 c         1 MOL      0.601941
     47 O7         -7.7740    3.0540   -3.4630 o         1 MOL     -0.639177
     48 O8         -7.8210    3.1140   -1.2470 o         1 MOL     -0.639177
     49 H21        -9.0010    0.7480   -0.8010 hn        1 MOL      0.216513
     50 H22        -6.3870   -0.5700   -1.0840 h1        1 MOL      0.324539
     51 H23        -7.4290    0.5520   -3.1280 hc        1 MOL      0.093092
     52 H24        -5.8420    1.1940   -2.6120 hc        1 MOL      0.093092
     53 N5         -4.7580    0.9160    0.1910 n         1 MOL      0.030262
     54 C17        -3.8020    0.1850   -0.7020 c3        1 MOL     -0.288360
     55 C18        -3.9580   -1.3080   -0.5140 c         1 MOL      0.720505
     56 O9         -4.4200   -1.8180    0.5030 o         1 MOL     -0.533130
     57 H25        -4.3220    1.5060    0.8900 hn        1 MOL      0.167672
     58 H26        -2.7710    0.4910   -0.5140 h1        1 MOL      0.124895
     59 H27        -3.9280    0.4510   -1.7520 h1        1 MOL      0.124895
     60 N6         -3.4880   -1.9630   -1.5480 n         1 MOL     -0.731408
     61 C19        -3.4790   -3.4420   -1.6940 c3        1 MOL      0.274323
     62 C20        -2.1220   -3.8680   -2.2780 c         1 MOL      0.370264
     63 O10        -1.5070   -3.0490   -2.9600 o         1 MOL     -0.449644
     64 C21        -4.6640   -3.9790   -2.5080 c3        1 MOL     -0.132883
     65 C22        -4.9690   -3.2840   -3.8490 c         1 MOL      0.648805
     66 O11        -5.7160   -2.2830   -3.9250 o         1 MOL     -0.630543
     67 O12        -4.3740   -3.6710   -4.9090 o         1 MOL     -0.630543
     68 H28        -3.0450   -1.5800   -2.3740 hn        1 MOL      0.390586
     69 H29        -3.5740   -3.8870   -0.7090 h1        1 MOL     -0.004502
     70 H30        -5.5290   -3.8350   -1.8550 hc        1 MOL      0.002890
     71 H31        -4.5550   -5.0460   -2.6700 hc        1 MOL      0.002890
     72 N7         -1.7020   -5.1110   -2.0580 n         1 MOL     -0.257421
     73 C23        -0.3490   -5.5240   -2.2690 c3        1 MOL     -0.273358
     74 C24         0.6900   -4.9910   -1.3060 c         1 MOL      0.600910
     75 O13         1.8780   -5.1930   -1.5350 o         1 MOL     -0.547943
     76 H32        -2.3390   -5.6760   -1.5100 hn        1 MOL      0.249043
     77 H33         0.0340   -5.1310   -3.2130 h1        1 MOL      0.146136
     78 H34        -0.2360   -6.5960   -2.4620 h1        1 MOL      0.146136
     79 N8          0.2570   -4.4030   -0.1870 n         1 MOL     -0.352838
     80 C25         1.0180   -3.8060    0.8870 c3        1 MOL     -0.187002
     81 C26         1.6960   -2.4480    0.6000 c         1 MOL      0.743224
     82 O14         1.2250   -1.7290   -0.2720 o         1 MOL     -0.525691
     83 C27         0.1650   -3.5110    2.1470 c3        1 MOL      0.449440
     84 C28        -1.0640   -2.7200    1.9390 c3        1 MOL     -0.428466
     85 O15        -0.3210   -4.7360    2.7350 oh        1 MOL     -0.610453
     86 H35        -0.7020   -4.5490    0.0840 hn        1 MOL      0.232699
     87 H36         1.8390   -4.4620    1.1770 h1        1 MOL      0.054172
     88 H37         0.8210   -3.1250    2.9260 h1        1 MOL     -0.040873
     89 H38         0.4160   -5.0830    3.2510 ho        1 MOL      0.362962
     90 H39        -1.7290   -3.2120    1.2300 hc        1 MOL      0.127227
     91 H40        -1.5960   -2.6250    2.8860 hc        1 MOL      0.127227
     92 H41        -0.8280   -1.7310    1.5650 hc        1 MOL      0.127227
     93 N9          2.7140   -2.0350    1.3790 n         1 MOL     -0.622606
     94 C29         3.4130   -0.7850    1.1060 c3        1 MOL     -0.040680
     95 C30         4.8420   -1.0980    0.5960 c         1 MOL      0.457817
     96 O16         5.5410   -0.2180    0.0310 o         1 MOL     -0.531994
     97 C31         3.4440    0.1990    2.2580 c3        1 MOL     -0.008350
     98 C32         3.7450   -0.2860    3.6400 c3        1 MOL      0.045048
     99 C33         2.0890    0.9340    2.2730 c3        1 MOL     -0.003417
    100 C34         2.7750   -1.1490    4.4310 c3        1 MOL     -0.284674
    101 H42         3.1620   -2.6160    2.0730 hn        1 MOL      0.333501
    102 H43         2.9370   -0.3090    0.2550 h1        1 MOL      0.153004
    103 H44         4.1750    0.9950    2.1170 hc        1 MOL      0.034542
    104 H45         3.9490    0.6040    4.2270 hc        1 MOL      0.018524
    105 H46         4.7070   -0.7960    3.5990 hc        1 MOL      0.018524
    106 H47         1.2640    0.2210    2.3350 hc        1 MOL      0.009330
    107 H48         1.9720    1.6330    3.0940 hc        1 MOL      0.009330
    108 H49         1.9990    1.5530    1.3770 hc        1 MOL      0.009330
    109 H50         2.7670   -2.1570    4.0120 hc        1 MOL      0.071586
    110 H51         3.1280   -1.1240    5.4660 hc        1 MOL      0.071586
    111 H52         1.8340   -0.6280    4.3420 hc        1 MOL      0.071586
    112 N10         5.3870   -2.2640    0.8500 n         1 MOL     -0.223373
    113 C35         6.6870   -2.7680    0.4820 c3        1 MOL     -0.075267
    114 C36         7.6810   -2.4350    1.5770 c         1 MOL      0.640886
    115 O17         7.4310   -2.6270    2.7820 o         1 MOL     -0.562726
    116 C37         6.6990   -4.2630    0.1000 c3        1 MOL      0.315636
    117 C38         5.8050   -4.5570   -1.1140 c3        1 MOL     -0.277588
    118 O18         7.9660   -4.5920   -0.3490 oh        1 MOL     -0.644831
    119 H53         4.8630   -2.8730    1.4750 hn        1 MOL      0.164704
    120 H54         6.9430   -2.1530   -0.3840 h1        1 MOL      0.139314
    121 H55         6.4220   -4.8010    1.0120 h1        1 MOL     -0.002685
    122 H56         8.0440   -5.5580   -0.3860 ho        1 MOL      0.403448
    123 H57         6.1730   -4.0890   -2.0330 hc        1 MOL      0.084489
    124 H58         5.7220   -5.6370   -1.2010 hc        1 MOL      0.084489
    125 H59         4.8100   -4.2010   -0.8400 hc        1 MOL      0.084489
    126 N11         8.8760   -2.0220    1.2100 n         1 MOL     -0.653483
    127 C39         9.9930   -1.7550    2.1150 c3        1 MOL      0.224210
    128 C40        10.4880   -0.3450    1.7390 c         1 MOL      0.601964
    129 O19        10.7540    0.3390    2.7330 o         1 MOL     -0.584656
    130 C41        11.1810   -2.7130    1.9430 c3        1 MOL      0.278402
    131 C42        12.3800   -2.1640    2.7420 c3        1 MOL     -0.361061
    132 O20        11.4460   -2.7680    0.5580 oh        1 MOL     -0.606239
    133 H60         9.1070   -2.0470    0.2300 hn        1 MOL      0.294716
    134 H61         9.6050   -1.7520    3.1250 h1        1 MOL      0.061458
    135 H62        10.8810   -3.7000    2.3160 h1        1 MOL      0.008760
    136 H63        11.6420   -3.6900    0.3460 ho        1 MOL      0.401774
    137 H64        12.1590   -1.5980    3.6450 hc        1 MOL      0.087912
    138 H65        13.0030   -2.9880    3.0850 hc        1 MOL      0.087912
    139 H66        13.0910   -1.7400    2.0210 hc        1 MOL      0.087912
    140 N12        10.5580    0.0620    0.4540 n         1 MOL     -0.446110
    141 C43        10.6950    1.5280    0.0580 c3        1 MOL      0.062929
    142 C44         9.6520    2.0490   -0.8620 c         1 MOL      0.504960
    143 O21         9.1650    1.3440   -1.7840 o         1 MOL     -0.518526
    144 C45        12.1080    1.6540   -0.4780 c3        1 MOL     -0.068754
    145 C46        13.2370    1.2280    0.4660 c3        1 MOL     -0.015553
    146 C47        14.6350    1.5570    0.0050 c3        1 MOL     -0.040029
    147 C48        15.1830    0.7260   -1.1210 c3        1 MOL     -0.046743
    148 N13        16.6370    0.8790   -1.0660 n4        1 MOL     -0.070018
    149 H67        10.3360   -0.6230   -0.2540 hn        1 MOL      0.287660
    150 H68        10.6950    2.1150    0.9830 h1        1 MOL      0.093556
    151 H69        12.2770    2.7060   -0.7010 hc        1 MOL      0.035780
    152 H70        12.2610    1.0650   -1.3850 hc        1 MOL      0.035780
    153 H71        13.1940    0.1440    0.5520 hc        1 MOL      0.032124
    154 H72        13.0150    1.6020    1.4700 hc        1 MOL      0.032124
    155 H73        15.2510    1.5500    0.9020 hc        1 MOL      0.037785
    156 H74        14.6340    2.6110   -0.2640 hc        1 MOL      0.037785
    157 H75        14.7620    1.2000   -2.0120 hx        1 MOL      0.093576
    158 H76        14.8550   -0.3050   -1.0150 hx        1 MOL      0.093576
    159 H77        17.0570    1.7980   -1.1790 hn        1 MOL      0.175413
    160 H78        16.8670    0.5550   -0.1420 hn        1 MOL      0.175413
    161 H79        17.1310    0.1510   -1.5620 hn        1 MOL      0.175413
    162 N14         9.2770    3.2910   -0.6920 n         1 MOL     -0.580641
    163 C49         8.3430    4.0070   -1.6060 c3        1 MOL      0.486671
    164 C50         6.8920    3.6750   -1.2920 c         1 MOL      0.381196
    165 O22         6.1190    3.2230   -2.1100 o         1 MOL     -0.550222
    166 C51         8.7110    5.4580   -1.7000 c3        1 MOL     -0.229388
    167 C52         7.6570    6.2480   -2.5410 c3        1 MOL     -0.150198
    168 C53         7.9950    7.6800   -2.8870 c         1 MOL      0.728239
    169 O23         7.9030    8.5680   -2.0140 o         1 MOL     -0.638463
    170 O24         8.3150    8.0680   -4.0180 o         1 MOL     -0.638463
    171 H80         9.8440    3.8420   -0.0660 hn        1 MOL      0.272145
    172 H81         8.5210    3.5700   -2.5970 h1        1 MOL      0.006812
    173 H82         9.7000    5.4590   -2.1490 hc        1 MOL      0.051872
    174 H83         8.6750    5.8610   -0.6810 hc        1 MOL      0.051872
    175 H84         6.6880    6.2660   -2.0280 hc        1 MOL      0.040631
    176 H85         7.5620    5.6360   -3.4450 hc        1 MOL      0.040631
    177 N15         6.3730    3.8730   -0.1230 n         1 MOL     -0.277087
    178 C54         6.8740    4.6880    0.9470 c3        1 MOL     -0.012194
    179 H86         7.1820    4.0490    1.7760 h1        1 MOL      0.029867
    180 H87         7.7300    5.2630    0.5950 h1        1 MOL      0.029867
    181 H88         6.0920    5.3680    1.2830 h1        1 MOL      0.029867
    182 H89         5.4430    3.5340    0.0990 hn        1 MOL      0.281384
    183 Ca1        -7.8220    3.9190    1.1990 Ca        1 MOL      1.696446
    184 O25        -8.0550    2.8670    3.6350 oh        1 MOL     -0.883008
    185 H90        -7.9170    1.9190    3.6990 ho        1 MOL      0.440847
    186 H91        -8.1360    3.1480    4.5470 ho        1 MOL      0.440847
@<TRIPOS>BOND
     1    1    2 1   
     2    1    4 1   
     3    1    5 1   
     4    1    6 1   
     5    2    3 2   
     6    2    7 1   
     7    7    8 1   
     8    7   15 1   
     9    8    9 1   
    10    8   11 1   
    11    8   16 1   
    12    9   10 2   
    13    9   19 1   
    14   11   12 1   
    15   11   17 1   
    16   11   18 1   
    17   12   13 1   
    18   12   14 1   
    19   19   20 1   
    20   19   28 1   
    21   20   21 1   
    22   20   23 1   
    23   20   29 1   
    24   21   22 2   
    25   21   41 1   
    26   23   24 1   
    27   23   30 1   
    28   23   31 1   
    29   24   25 1   
    30   24   32 1   
    31   24   33 1   
    32   25   26 1   
    33   25   34 1   
    34   25   35 1   
    35   26   27 1   
    36   26   36 1   
    37   26   37 1   
    38   27   38 1   
    39   27   39 1   
    40   27   40 1   
    41   41   42 1   
    42   41   49 1   
    43   42   43 1   
    44   42   45 1   
    45   42   50 1   
    46   43   44 2   
    47   43   53 1   
    48   45   46 1   
    49   45   51 1   
    50   45   52 1   
    51   46   47 1   
    52   46   48 1   
    53   53   54 1   
    54   53   57 1   
    55   54   55 1   
    56   54   58 1   
    57   54   59 1   
    58   55   56 2   
    59   55   60 1   
    60   60   61 1   
    61   60   68 1   
    62   61   62 1   
    63   61   64 1   
    64   61   69 1   
    65   62   63 2   
    66   62   72 1   
    67   64   65 1   
    68   64   70 1   
    69   64   71 1   
    70   65   66 1   
    71   65   67 1   
    72   72   73 1   
    73   72   76 1   
    74   73   74 1   
    75   73   77 1   
    76   73   78 1   
    77   74   75 2   
    78   74   79 1   
    79   79   80 1   
    80   79   86 1   
    81   80   81 1   
    82   80   83 1   
    83   80   87 1   
    84   81   82 2   
    85   81   93 1   
    86   83   84 1   
    87   83   85 1   
    88   83   88 1   
    89   84   90 1   
    90   84   91 1   
    91   84   92 1   
    92   85   89 1   
    93   93   94 1   
    94   93  101 1   
    95   94   95 1   
    96   94   97 1   
    97   94  102 1   
    98   95   96 2   
    99   95  112 1   
   100   97   98 1   
   101   97   99 1   
   102   97  103 1   
   103   98  100 1   
   104   98  104 1   
   105   98  105 1   
   106   99  106 1   
   107   99  107 1   
   108   99  108 1   
   109  100  109 1   
   110  100  110 1   
   111  100  111 1   
   112  112  113 1   
   113  112  119 1   
   114  113  114 1   
   115  113  116 1   
   116  113  120 1   
   117  114  115 2   
   118  114  126 1   
   119  116  117 1   
   120  116  118 1   
   121  116  121 1   
   122  117  123 1   
   123  117  124 1   
   124  117  125 1   
   125  118  122 1   
   126  126  127 1   
   127  126  133 1   
   128  127  128 1   
   129  127  130 1   
   130  127  134 1   
   131  128  129 2   
   132  128  140 1   
   133  130  131 1   
   134  130  132 1   
   135  130  135 1   
   136  131  137 1   
   137  131  138 1   
   138  131  139 1   
   139  132  136 1   
   140  140  141 1   
   141  140  149 1   
   142  141  142 1   
   143  141  144 1   
   144  141  150 1   
   145  142  143 2   
   146  142  162 1   
   147  144  145 1   
   148  144  151 1   
   149  144  152 1   
   150  145  146 1   
   151  145  153 1   
   152  145  154 1   
   153  146  147 1   
   154  146  155 1   
   155  146  156 1   
   156  147  148 1   
   157  147  157 1   
   158  147  158 1   
   159  148  159 1   
   160  148  160 1   
   161  148  161 1   
   162  162  163 1   
   163  162  171 1   
   164  163  164 1   
   165  163  166 1   
   166  163  172 1   
   167  164  165 2   
   168  164  177 1   
   169  166  167 1   
   170  166  173 1   
   171  166  174 1   
   172  167  168 1   
   173  167  175 1   
   174  167  176 1   
   175  168  169 1   
   176  168  170 1   
   177  177  178 1   
   178  177  182 1   
   179  178  179 1   
   180  178  180 1   
   181  178  181 1   
   182  184  185 1   
   183  184  186 1   
@<TRIPOS>SUBSTRUCTURE
     1 MOL         1 TEMP              0 ****  ****    0 ROOT
