@<TRIPOS>MOLECULE
MOL
  195   189     1     0     0
SMALL
resp


@<TRIPOS>ATOM
      1 C1         -4.6200    6.1770    3.2910 c3        1 MOL     -0.411553
      2 C2         -4.5740    4.7860    2.7250 c         1 MOL      0.667992
      3 O1         -4.7400    3.7360    3.3610 o         1 MOL     -0.569162
      4 H1         -3.6260    6.4590    3.6420 hc        1 MOL      0.105685
      5 H2         -4.9440    6.8740    2.5180 hc        1 MOL      0.105685
      6 H3         -5.3200    6.2070    4.1250 hc        1 MOL      0.105685
      7 N1         -4.5270    4.7690    1.3600 n         1 MOL     -0.418780
      8 C3         -4.3630    3.6000    0.5290 c3        1 MOL     -0.027169
      9 C4         -2.9220    3.1990    0.1620 c         1 MOL      0.531634
     10 O2         -2.7180    2.2580   -0.5920 o         1 MOL     -0.549221
     11 C5         -5.3310    3.6390   -0.6500 c3        1 MOL     -0.169022
     12 C6         -5.4430    4.9080   -1.5070 c         1 MOL      0.654014
     13 O3         -5.9280    4.6770   -2.6440 o         1 MOL     -0.711294
     14 O4         -5.1180    6.0370   -1.0350 o         1 MOL     -0.711294
     15 H4         -4.4680    5.6720    0.9070 hn        1 MOL      0.270257
     16 H5         -4.7270    2.7600    1.1170 h1        1 MOL      0.102689
     17 H6         -6.3590    3.5070   -0.3170 hc        1 MOL      0.061668
     18 H7         -5.1000    2.7600   -1.2500 hc        1 MOL      0.061668
     19 N2         -1.8900    3.8080    0.7060 n         1 MOL     -0.440177
     20 C7         -0.4310    3.6300    0.3960 c3        1 MOL      0.521657
     21 C8          0.2870    3.1300    1.6070 c         1 MOL      0.374668
     22 O5          0.1140    3.7880    2.6870 o         1 MOL     -0.563054
     23 C9          0.1760    4.9180   -0.2300 c3        1 MOL     -0.425739
     24 C10        -0.0260    4.8120   -1.7950 c3        1 MOL      0.303145
     25 C11         0.2600    6.1450   -2.5100 c3        1 MOL     -0.128243
     26 C12         0.0180    6.0610   -4.0040 c3        1 MOL      0.104757
     27 N3         -1.3590    5.5990   -4.3270 n4        1 MOL     -0.460042
     28 H8         -2.0900    4.6350    1.2530 hn        1 MOL      0.199348
     29 H9         -0.2970    2.8160   -0.3130 h1        1 MOL     -0.100192
     30 H10         1.2480    4.9030   -0.0400 hc        1 MOL      0.119273
     31 H11        -0.1980    5.8230    0.2480 hc        1 MOL      0.119273
     32 H12        -1.0980    4.5860   -1.8690 hc        1 MOL     -0.059243
     33 H13         0.5150    4.0020   -2.2760 hc        1 MOL     -0.059243
     34 H14         1.3440    6.2060   -2.4660 hc        1 MOL      0.061233
     35 H15        -0.2130    6.9970   -2.0110 hc        1 MOL      0.061233
     36 H16         0.7780    5.3740   -4.4010 hx        1 MOL      0.067361
     37 H17         0.2620    7.0200   -4.4700 hx        1 MOL      0.067361
     38 H18        -2.0520    6.2800   -4.0700 hn        1 MOL      0.349807
     39 H19        -1.3840    5.4510   -5.3210 hn        1 MOL      0.349807
     40 H20        -1.4610    4.7270   -3.8180 hn        1 MOL      0.349807
     41 N4          1.0790    2.0700    1.6400 n         1 MOL     -0.323219
     42 C13         1.5160    1.0150    0.6610 c3        1 MOL      0.000131
     43 C14         1.8240    1.5440   -0.7120 c         1 MOL      0.526215
     44 O6          1.0800    1.2980   -1.6500 o         1 MOL     -0.587580
     45 C15         0.4200   -0.0770    0.6900 c3        1 MOL     -0.143091
     46 C16         0.1680   -0.6730    2.0320 c         1 MOL      0.912893
     47 O7         -0.9890   -0.8070    2.4240 o         1 MOL     -0.824538
     48 O8          1.0890   -0.8370    2.8010 o         1 MOL     -0.824538
     49 H21         1.3980    1.9200    2.5930 hn        1 MOL      0.262828
     50 H22         2.4010    0.4850    1.0290 h1        1 MOL      0.069799
     51 H23         0.6040   -0.8570   -0.0550 hc        1 MOL      0.079719
     52 H24        -0.5360    0.3030    0.3390 hc        1 MOL      0.079719
     53 N5          2.8760    2.2660   -0.9920 n         1 MOL     -0.413912
     54 C17         3.8680    2.7650   -0.0240 c3        1 MOL      0.006220
     55 C18         4.8870    3.6680   -0.7240 c         1 MOL      0.538026
     56 O9          4.7640    4.0370   -1.8750 o         1 MOL     -0.521581
     57 H25         3.1810    2.4150   -1.9390 hn        1 MOL      0.293995
     58 H26         4.2960    1.8750    0.4490 h1        1 MOL      0.033168
     59 H27         3.5050    3.3090    0.8410 h1        1 MOL      0.033168
     60 N6          5.9400    4.1240    0.0590 n         1 MOL     -0.485328
     61 C19         6.3900    3.6190    1.3830 c3        1 MOL      0.088426
     62 C20         7.1640    2.3620    1.2270 c         1 MOL      0.480203
     63 O10         7.5840    1.9570    0.1760 o         1 MOL     -0.415755
     64 C21         7.2840    4.7160    1.9180 c3        1 MOL     -0.172759
     65 C22         8.2930    5.3500    0.9310 c         1 MOL      0.752966
     66 O11         7.9380    6.2600    0.1790 o         1 MOL     -0.679194
     67 O12         9.4750    4.9830    1.0140 o         1 MOL     -0.679194
     68 H28         6.4830    4.8440   -0.3910 hn        1 MOL      0.277500
     69 H29         5.5330    3.4340    2.0170 h1        1 MOL      0.015197
     70 H30         7.8090    4.3110    2.7810 hc        1 MOL      0.013575
     71 H31         6.6350    5.5180    2.2930 hc        1 MOL      0.013575
     72 N7          7.3720    1.6290    2.3820 n         1 MOL     -0.339767
     73 C23         8.1460    0.3720    2.3190 c3        1 MOL     -0.126302
     74 C24         7.5190   -0.7460    1.5250 c         1 MOL      0.510475
     75 O13         8.2110   -1.4210    0.7810 o         1 MOL     -0.525062
     76 H32         7.0990    1.9190    3.3090 hn        1 MOL      0.253239
     77 H33         8.1870    0.0600    3.3630 h1        1 MOL      0.100759
     78 H34         9.1620    0.6080    2.0180 h1        1 MOL      0.100759
     79 N8          6.2100   -0.9050    1.6310 n         1 MOL     -0.467446
     80 C25         5.4050   -1.9410    0.9740 c3        1 MOL      0.184248
     81 C26         4.8980   -1.5440   -0.4250 c         1 MOL      0.682551
     82 O14         4.5010   -0.4100   -0.5810 o         1 MOL     -0.496695
     83 C27         4.2190   -2.3770    1.8770 c3        1 MOL      0.308520
     84 C28         4.5680   -2.8520    3.3260 c3        1 MOL     -0.172452
     85 O15         3.5880   -3.4770    1.1590 oh        1 MOL     -0.621908
     86 H35         5.7430   -0.1280    2.0810 hn        1 MOL      0.207709
     87 H36         6.0290   -2.8070    0.7880 h1        1 MOL      0.027476
     88 H37         3.4700   -1.5870    1.9180 h1        1 MOL     -0.001694
     89 H38         2.6780   -3.4840    1.4610 ho        1 MOL      0.289119
     90 H39         5.2200   -3.7190    3.4520 hc        1 MOL      0.030528
     91 H40         5.0420   -2.0300    3.8680 hc        1 MOL      0.030528
     92 H41         3.6450   -2.9010    3.9050 hc        1 MOL      0.030528
     93 N9          4.8160   -2.5110   -1.3060 n         1 MOL     -0.605793
     94 C29         4.3850   -2.3840   -2.6700 c3        1 MOL      0.039213
     95 C30         3.1170   -3.2390   -3.0090 c         1 MOL      0.317711
     96 O16         2.6180   -3.2970   -4.1300 o         1 MOL     -0.539959
     97 C31         5.4550   -2.7630   -3.7060 c3        1 MOL      0.214983
     98 C32         5.8690   -4.2170   -3.6040 c3        1 MOL     -0.015238
     99 C33         6.6030   -1.7970   -3.7440 c3        1 MOL     -0.357147
    100 C34         6.6720   -4.7090   -4.8430 c3        1 MOL     -0.097716
    101 H42         5.0070   -3.4550   -0.9950 hn        1 MOL      0.296976
    102 H43         3.9990   -1.3660   -2.7910 h1        1 MOL      0.110381
    103 H44         4.9020   -2.5520   -4.6220 hc        1 MOL      0.001234
    104 H45         5.0690   -4.9030   -3.3330 hc        1 MOL     -0.002902
    105 H46         6.5200   -4.2260   -2.7350 hc        1 MOL     -0.002902
    106 H47         7.2170   -2.0310   -4.6160 hc        1 MOL      0.101204
    107 H48         6.3060   -0.7570   -3.8810 hc        1 MOL      0.101204
    108 H49         7.1240   -1.7950   -2.7880 hc        1 MOL      0.101204
    109 H50         6.0220   -4.6490   -5.7120 hc        1 MOL      0.028909
    110 H51         7.5490   -4.1500   -5.1680 hc        1 MOL      0.028909
    111 H52         6.8950   -5.7660   -4.6770 hc        1 MOL      0.028909
    112 N10         2.5680   -4.0010   -2.0390 n         1 MOL     -0.067976
    113 C35         1.2800   -4.6730   -2.0920 c3        1 MOL      0.024172
    114 C36         0.1830   -3.7450   -1.5580 c         1 MOL      0.553436
    115 O17         0.2870   -3.1680   -0.4660 o         1 MOL     -0.573758
    116 C37         1.4240   -6.0400   -1.4180 c3        1 MOL      0.360432
    117 C38         2.1420   -6.9800   -2.2870 c3        1 MOL     -0.311099
    118 O18         0.1750   -6.5890   -1.1600 oh        1 MOL     -0.616775
    119 H53         3.0560   -3.9620   -1.1640 hn        1 MOL      0.095040
    120 H54         1.0410   -4.8190   -3.1500 h1        1 MOL      0.067900
    121 H55         1.8220   -5.8870   -0.4080 h1        1 MOL     -0.037133
    122 H56         0.0890   -6.5540   -0.2080 ho        1 MOL      0.385211
    123 H57         3.0450   -6.4210   -2.5500 hc        1 MOL      0.091143
    124 H58         2.3430   -7.9070   -1.7580 hc        1 MOL      0.091143
    125 H59         1.5850   -7.3050   -3.1720 hc        1 MOL      0.091143
    126 N11        -0.8930   -3.6790   -2.3680 n         1 MOL     -0.511453
    127 C39        -1.8650   -2.6420   -2.3710 c3        1 MOL      0.057706
    128 C40        -3.2880   -3.2470   -2.3800 c         1 MOL      0.644428
    129 O19        -3.5800   -4.3240   -2.8890 o         1 MOL     -0.535287
    130 C41        -1.5970   -1.6900   -3.5520 c3        1 MOL      0.174736
    131 C42        -0.2540   -0.9760   -3.4650 c3        1 MOL     -0.131862
    132 O20        -2.5910   -0.6820   -3.5210 oh        1 MOL     -0.617474
    133 H60        -0.9200   -4.3400   -3.1340 hn        1 MOL      0.303751
    134 H61        -1.8350   -2.0930   -1.4340 h1        1 MOL      0.116751
    135 H62        -1.6620   -2.2440   -4.4930 h1        1 MOL      0.019134
    136 H63        -2.3290   -0.0400   -4.1980 ho        1 MOL      0.380552
    137 H64        -0.1640   -0.8290   -2.3900 hc        1 MOL      0.060119
    138 H65         0.5520   -1.5620   -3.9280 hc        1 MOL      0.060119
    139 H66        -0.3570   -0.0220   -3.9770 hc        1 MOL      0.060119
    140 N12        -4.2450   -2.5440   -1.6780 n         1 MOL     -0.580860
    141 C43        -5.6810   -2.7050   -1.8770 c3        1 MOL      0.086706
    142 C44        -6.4410   -2.5850   -0.5670 c         1 MOL      0.549133
    143 O21        -7.6060   -2.8650   -0.6420 o         1 MOL     -0.574684
    144 C45        -6.2630   -1.7400   -2.9280 c3        1 MOL     -0.206382
    145 C46        -6.1650   -0.2190   -2.6450 c3        1 MOL      0.164221
    146 C47        -6.7810    0.6680   -3.7120 c3        1 MOL     -0.024117
    147 C48        -5.7980    0.7880   -4.8970 c3        1 MOL      0.128099
    148 N13        -6.5190    1.3460   -6.1230 n4        1 MOL     -0.462860
    149 H67        -3.9850   -1.6020   -1.4210 hn        1 MOL      0.326173
    150 H68        -5.8760   -3.7470   -2.1190 h1        1 MOL      0.133732
    151 H69        -7.2980   -2.0720   -2.9980 hc        1 MOL      0.043442
    152 H70        -5.7840   -1.7930   -3.9120 hc        1 MOL      0.043442
    153 H71        -5.1390    0.1050   -2.4520 hc        1 MOL     -0.009306
    154 H72        -6.7330   -0.0350   -1.7350 hc        1 MOL     -0.009306
    155 H73        -7.0220    1.6700   -3.3560 hc        1 MOL      0.024812
    156 H74        -7.6860    0.1880   -4.0810 hc        1 MOL      0.024812
    157 H75        -5.3990   -0.2120   -5.0800 hx        1 MOL      0.035819
    158 H76        -4.9620    1.4230   -4.5860 hx        1 MOL      0.035819
    159 H77        -7.3650    0.8420   -6.3350 hn        1 MOL      0.330626
    160 H78        -6.7490    2.2820   -5.8230 hn        1 MOL      0.330626
    161 H79        -5.9500    1.2530   -6.9520 hn        1 MOL      0.330626
    162 N14        -5.8540   -2.3680    0.5790 n         1 MOL     -0.291949
    163 C49        -6.5450   -1.8350    1.7690 c3        1 MOL     -0.158476
    164 C50        -7.2670   -0.4840    1.4310 c         1 MOL      0.489773
    165 O22        -6.6460    0.5100    1.2340 o         1 MOL     -0.487151
    166 C51        -5.5100   -1.6320    2.8490 c3        1 MOL     -0.173901
    167 C52        -5.0450   -2.8920    3.5080 c3        1 MOL     -0.001791
    168 C53        -3.8120   -2.6550    4.3630 c         1 MOL      0.606325
    169 O23        -2.6560   -2.8110    3.8350 o         1 MOL     -0.693884
    170 O24        -3.9770   -2.3860    5.5910 o         1 MOL     -0.693884
    171 H80        -4.8710   -2.1610    0.5120 hn        1 MOL      0.201853
    172 H81        -7.3430   -2.4920    2.1080 h1        1 MOL      0.121957
    173 H82        -5.9180   -0.9720    3.6240 hc        1 MOL      0.125571
    174 H83        -4.6340   -1.1230    2.4440 hc        1 MOL      0.125571
    175 H84        -4.8590   -3.6170    2.7140 hc        1 MOL     -0.001873
    176 H85        -5.8540   -3.3740    4.0620 hc        1 MOL     -0.001873
    177 N15        -8.5750   -0.4640    1.5790 n         1 MOL     -0.257651
    178 C54        -9.3980    0.8230    1.6130 c3        1 MOL     -0.265582
    179 H86       -10.4600    0.5740    1.6230 h1        1 MOL      0.127391
    180 H87        -9.1490    1.3910    2.5090 h1        1 MOL      0.127391
    181 H88        -9.1750    1.4220    0.7290 h1        1 MOL      0.127391
    182 H89        -9.0250   -1.3420    1.7770 hn        1 MOL      0.231467
    183 Ca1        -0.1480   -2.5470    4.4100 Ca        1 MOL      1.795274
    184 O25        -0.9410   -2.9490    7.0670 oh        1 MOL     -0.909042
    185 H90        -1.4400   -2.2870    7.5410 ho        1 MOL      0.444528
    186 H91        -1.1180   -3.7660    7.5380 ho        1 MOL      0.444528
    187 O26        -0.8500   -5.1470    4.6270 oh        1 MOL     -0.909042
    188 H92        -1.6820   -5.5540    4.8870 ho        1 MOL      0.444528
    189 H93        -0.2190   -5.4800    5.2660 ho        1 MOL      0.444528
    190 O27         0.6100   -3.5770    1.9980 oh        1 MOL     -0.909042
    191 H94         0.5110   -3.4540    1.0610 ho        1 MOL      0.444528
    192 H95         0.9200   -4.4760    2.0950 ho        1 MOL      0.444528
    193 O28        -1.1930   -0.0500    5.3450 oh        1 MOL     -0.909042
    194 H96        -2.0980   -0.0340    5.6640 ho        1 MOL      0.444528
    195 H97        -1.1190    0.7440    4.8120 ho        1 MOL      0.444528
@<TRIPOS>BOND
     1    1    2 1   
     2    1    4 1   
     3    1    5 1   
     4    1    6 1   
     5    2    3 2   
     6    2    7 1   
     7    7    8 1   
     8    7   15 1   
     9    8    9 1   
    10    8   11 1   
    11    8   16 1   
    12    9   10 2   
    13    9   19 1   
    14   11   12 1   
    15   11   17 1   
    16   11   18 1   
    17   12   13 1   
    18   12   14 1   
    19   19   20 1   
    20   19   28 1   
    21   20   21 1   
    22   20   23 1   
    23   20   29 1   
    24   21   22 2   
    25   21   41 1   
    26   23   24 1   
    27   23   30 1   
    28   23   31 1   
    29   24   25 1   
    30   24   32 1   
    31   24   33 1   
    32   25   26 1   
    33   25   34 1   
    34   25   35 1   
    35   26   27 1   
    36   26   36 1   
    37   26   37 1   
    38   27   38 1   
    39   27   39 1   
    40   27   40 1   
    41   41   42 1   
    42   41   49 1   
    43   42   43 1   
    44   42   45 1   
    45   42   50 1   
    46   43   44 2   
    47   43   53 1   
    48   45   46 1   
    49   45   51 1   
    50   45   52 1   
    51   46   47 1   
    52   46   48 1   
    53   53   54 1   
    54   53   57 1   
    55   54   55 1   
    56   54   58 1   
    57   54   59 1   
    58   55   56 2   
    59   55   60 1   
    60   60   61 1   
    61   60   68 1   
    62   61   62 1   
    63   61   64 1   
    64   61   69 1   
    65   62   63 2   
    66   62   72 1   
    67   64   65 1   
    68   64   70 1   
    69   64   71 1   
    70   65   66 1   
    71   65   67 1   
    72   72   73 1   
    73   72   76 1   
    74   73   74 1   
    75   73   77 1   
    76   73   78 1   
    77   74   75 2   
    78   74   79 1   
    79   79   80 1   
    80   79   86 1   
    81   80   81 1   
    82   80   83 1   
    83   80   87 1   
    84   81   82 2   
    85   81   93 1   
    86   83   84 1   
    87   83   85 1   
    88   83   88 1   
    89   84   90 1   
    90   84   91 1   
    91   84   92 1   
    92   85   89 1   
    93   93   94 1   
    94   93  101 1   
    95   94   95 1   
    96   94   97 1   
    97   94  102 1   
    98   95   96 2   
    99   95  112 1   
   100   97   98 1   
   101   97   99 1   
   102   97  103 1   
   103   98  100 1   
   104   98  104 1   
   105   98  105 1   
   106   99  106 1   
   107   99  107 1   
   108   99  108 1   
   109  100  109 1   
   110  100  110 1   
   111  100  111 1   
   112  112  113 1   
   113  112  119 1   
   114  113  114 1   
   115  113  116 1   
   116  113  120 1   
   117  114  115 2   
   118  114  126 1   
   119  116  117 1   
   120  116  118 1   
   121  116  121 1   
   122  117  123 1   
   123  117  124 1   
   124  117  125 1   
   125  118  122 1   
   126  126  127 1   
   127  126  133 1   
   128  127  128 1   
   129  127  130 1   
   130  127  134 1   
   131  128  129 2   
   132  128  140 1   
   133  130  131 1   
   134  130  132 1   
   135  130  135 1   
   136  131  137 1   
   137  131  138 1   
   138  131  139 1   
   139  132  136 1   
   140  140  141 1   
   141  140  149 1   
   142  141  142 1   
   143  141  144 1   
   144  141  150 1   
   145  142  143 2   
   146  142  162 1   
   147  144  145 1   
   148  144  151 1   
   149  144  152 1   
   150  145  146 1   
   151  145  153 1   
   152  145  154 1   
   153  146  147 1   
   154  146  155 1   
   155  146  156 1   
   156  147  148 1   
   157  147  157 1   
   158  147  158 1   
   159  148  159 1   
   160  148  160 1   
   161  148  161 1   
   162  162  163 1   
   163  162  171 1   
   164  163  164 1   
   165  163  166 1   
   166  163  172 1   
   167  164  165 2   
   168  164  177 1   
   169  166  167 1   
   170  166  173 1   
   171  166  174 1   
   172  167  168 1   
   173  167  175 1   
   174  167  176 1   
   175  168  169 1   
   176  168  170 1   
   177  177  178 1   
   178  177  182 1   
   179  178  179 1   
   180  178  180 1   
   181  178  181 1   
   182  184  185 1   
   183  184  186 1   
   184  187  188 1   
   185  187  189 1   
   186  190  191 1   
   187  190  192 1   
   188  193  194 1   
   189  193  195 1   
@<TRIPOS>SUBSTRUCTURE
     1 MOL         1 TEMP              0 ****  ****    0 ROOT
