@<TRIPOS>MOLECULE
MOL
  192   187     1     0     0
SMALL
resp


@<TRIPOS>ATOM
      1 C1         -5.9850   -4.2060    4.5540 c3        1 MOL     -0.323393
      2 C2         -5.4420   -3.3840    3.4550 c         1 MOL      0.667346
      3 O1         -5.1720   -3.8340    2.4040 o         1 MOL     -0.580438
      4 H1         -6.0880   -3.5930    5.4500 hc        1 MOL      0.080632
      5 H2         -6.9610   -4.5970    4.2690 hc        1 MOL      0.080632
      6 H3         -5.3070   -5.0350    4.7570 hc        1 MOL      0.080632
      7 N1         -5.2790   -2.0900    3.6690 n         1 MOL     -0.237374
      8 C3         -4.7910   -1.1500    2.7090 c3        1 MOL      0.219685
      9 C4         -3.3530   -1.1940    2.0840 c         1 MOL     -0.013177
     10 O2         -3.0660   -0.5050    1.1370 o         1 MOL     -0.223990
     11 C5         -4.8910    0.2970    3.3320 c3        1 MOL     -0.068651
     12 C6         -6.1820    0.4900    4.1200 c         1 MOL      0.656735
     13 O3         -6.2500    0.0510    5.3010 o         1 MOL     -0.672066
     14 O4         -7.1690    1.0100    3.6510 o         1 MOL     -0.672066
     15 H4         -5.3750   -1.7040    4.5940 hn        1 MOL      0.123570
     16 H5         -5.4600   -1.1410    1.8430 h1        1 MOL     -0.017136
     17 H6         -4.7860    0.9960    2.5020 hc        1 MOL     -0.038307
     18 H7         -4.1460    0.5670    4.0820 hc        1 MOL     -0.038307
     19 N2         -2.5190   -1.9400    2.7090 n         1 MOL     -0.125661
     20 C7         -1.0610   -1.8430    2.5600 c3        1 MOL      0.029823
     21 C8         -0.4740   -2.9570    1.5950 c         1 MOL      0.513886
     22 O5         -0.9570   -4.0590    1.7470 o         1 MOL     -0.497146
     23 C9         -0.4070   -2.1550    3.9290 c3        1 MOL      0.001233
     24 C10        -0.7050   -1.0830    4.9640 c3        1 MOL     -0.005347
     25 C11        -0.1070    0.2230    4.5590 c3        1 MOL     -0.020553
     26 C12        -0.5610    1.4030    5.4210 c3        1 MOL      0.108880
     27 N3          0.2730    2.6790    5.1470 n4        1 MOL     -0.384435
     28 H8         -2.8420   -2.4820    3.4920 hn        1 MOL      0.202034
     29 H9         -0.8190   -0.8450    2.1700 h1        1 MOL      0.079213
     30 H10         0.6720   -2.3050    3.8110 hc        1 MOL      0.035231
     31 H11        -0.8270   -3.1130    4.2490 hc        1 MOL      0.035231
     32 H12        -0.3140   -1.4410    5.9120 hc        1 MOL      0.012187
     33 H13        -1.7960   -1.0520    5.0920 hc        1 MOL      0.012187
     34 H14        -0.4230    0.4350    3.5370 hc        1 MOL      0.022993
     35 H15         0.9770    0.2300    4.6340 hc        1 MOL      0.022993
     36 H16        -0.5630    1.1680    6.4900 hx        1 MOL      0.052707
     37 H17        -1.5730    1.7340    5.1910 hx        1 MOL      0.052707
     38 H18         0.1430    2.8930    4.1740 hn        1 MOL      0.316121
     39 H19         0.0640    3.4120    5.8200 hn        1 MOL      0.316121
     40 H20         1.2600    2.4790    5.1320 hn        1 MOL      0.316121
     41 N4          0.5450   -2.7520    0.6870 n         1 MOL     -0.521803
     42 C13         1.0620   -1.4340    0.1240 c3        1 MOL     -0.101828
     43 C14         1.5290   -0.3950    1.1420 c         1 MOL      0.311405
     44 O6          0.9080    0.6200    1.3050 o         1 MOL     -0.481851
     45 C15         0.2050   -0.8430   -1.0410 c3        1 MOL      0.309640
     46 C16         0.0130   -1.8230   -2.1410 c         1 MOL      0.591316
     47 O7          0.7160   -2.8670   -2.1730 o         1 MOL     -0.809187
     48 O8         -0.7910   -1.6270   -3.0530 o         1 MOL     -0.809187
     49 H21         0.9400   -3.6000    0.3080 hn        1 MOL      0.315580
     50 H22         2.0020   -1.6540   -0.3900 h1        1 MOL      0.058866
     51 H23         0.6840    0.0000   -1.5420 hc        1 MOL      0.011805
     52 H24        -0.7750   -0.6570   -0.6040 hc        1 MOL      0.011805
     53 N5          2.5500   -0.5950    1.9210 n         1 MOL     -0.250220
     54 C17         3.5380   -1.6540    1.7540 c3        1 MOL     -0.013597
     55 C18         4.4270   -1.8930    3.0070 c         1 MOL      0.494108
     56 O9          4.0310   -1.5400    4.1420 o         1 MOL     -0.538322
     57 H25         2.6680   -0.0170    2.7430 hn        1 MOL      0.256110
     58 H26         4.1990   -1.3810    0.9310 h1        1 MOL      0.084917
     59 H27         3.1040   -2.6040    1.4320 h1        1 MOL      0.084917
     60 N6          5.7000   -2.4220    2.8590 n         1 MOL     -0.401492
     61 C19         6.4410   -3.0260    1.7310 c3        1 MOL     -0.093060
     62 C20         7.3560   -2.0190    1.0740 c         1 MOL      0.403866
     63 O10         7.9350   -1.0790    1.7320 o         1 MOL     -0.425488
     64 C21         7.2420   -4.2450    2.2020 c3        1 MOL     -0.113034
     65 C22         8.1900   -4.0000    3.4170 c         1 MOL      0.764825
     66 O11         7.6320   -3.5600    4.4080 o         1 MOL     -0.694685
     67 O12         9.3120   -4.4760    3.4220 o         1 MOL     -0.694685
     68 H28         6.1750   -2.5990    3.7290 hn        1 MOL      0.292961
     69 H29         5.6550   -3.4410    1.0950 h1        1 MOL      0.045639
     70 H30         7.7530   -4.7900    1.4000 hc        1 MOL      0.015967
     71 H31         6.5140   -4.9860    2.5390 hc        1 MOL      0.015967
     72 N7          7.6700   -2.2920   -0.2280 n         1 MOL     -0.248486
     73 C23         8.4400   -1.3410   -1.0370 c3        1 MOL     -0.328701
     74 C24         7.6410   -0.0770   -1.5150 c         1 MOL      0.521773
     75 O13         8.1700    1.0160   -1.7140 o         1 MOL     -0.520018
     76 H32         7.2630   -3.0840   -0.7180 hn        1 MOL      0.261836
     77 H33         8.8230   -1.9270   -1.8690 h1        1 MOL      0.166487
     78 H34         9.2630   -0.9100   -0.4620 h1        1 MOL      0.166487
     79 N8          6.3070   -0.2450   -1.5340 n         1 MOL     -0.395805
     80 C25         5.3360    0.7530   -1.9600 c3        1 MOL      0.173951
     81 C26         4.8440    1.5420   -0.7790 c         1 MOL      0.642548
     82 O14         4.4610    0.9910    0.2440 o         1 MOL     -0.517221
     83 C27         4.1860    0.1540   -2.7640 c3        1 MOL      0.338399
     84 C28         4.6240   -0.6280   -4.0450 c3        1 MOL     -0.319671
     85 O15         3.2180    1.0960   -3.0770 oh        1 MOL     -0.647895
     86 H35         5.9290   -1.0760   -1.1010 hn        1 MOL      0.152868
     87 H36         5.9020    1.4350   -2.5930 h1        1 MOL      0.035389
     88 H37         3.5690   -0.4920   -2.1390 h1        1 MOL     -0.014796
     89 H38         2.5880    0.7000   -3.6770 ho        1 MOL      0.436700
     90 H39         5.0150    0.0970   -4.7630 hc        1 MOL      0.073623
     91 H40         5.3710   -1.3810   -3.8270 hc        1 MOL      0.073623
     92 H41         3.7790   -1.1550   -4.4970 hc        1 MOL      0.073623
     93 N9          4.7710    2.8560   -0.9290 n         1 MOL     -0.465829
     94 C29         4.1810    3.7560    0.0840 c3        1 MOL     -0.106541
     95 C30         2.7680    4.1830   -0.3060 c         1 MOL      0.501570
     96 O16         2.0150    4.8240    0.4230 o         1 MOL     -0.608942
     97 C31         5.0860    4.9740    0.3920 c3        1 MOL      0.223257
     98 C32         5.3790    5.8140   -0.8500 c3        1 MOL      0.094285
     99 C33         6.4390    4.4730    1.0790 c3        1 MOL     -0.321042
    100 C34         6.1170    7.0800   -0.4300 c3        1 MOL     -0.302827
    101 H42         5.2650    3.1800   -1.7430 hn        1 MOL      0.261411
    102 H43         4.1160    3.1500    0.9880 h1        1 MOL      0.118166
    103 H44         4.5660    5.5170    1.1740 hc        1 MOL     -0.004483
    104 H45         4.4610    5.9900   -1.4210 hc        1 MOL     -0.005563
    105 H46         5.9670    5.1510   -1.4830 hc        1 MOL     -0.005563
    106 H47         6.9450    5.3700    1.4520 hc        1 MOL      0.093784
    107 H48         6.2330    3.9230    2.0050 hc        1 MOL      0.093784
    108 H49         6.9140    3.9090    0.2900 hc        1 MOL      0.093784
    109 H50         5.6130    7.5430    0.4130 hc        1 MOL      0.075560
    110 H51         7.1260    6.7790   -0.1450 hc        1 MOL      0.075560
    111 H52         6.0860    7.7200   -1.3140 hc        1 MOL      0.075560
    112 N10         2.3260    3.7550   -1.5000 n         1 MOL     -0.216058
    113 C35         0.9970    4.0450   -2.1260 c3        1 MOL      0.079076
    114 C36        -0.0500    3.1180   -1.5170 c         1 MOL      0.541243
    115 O17        -0.6240    2.2410   -2.1950 o         1 MOL     -0.495458
    116 C37         1.0600    3.9790   -3.6870 c3        1 MOL      0.412290
    117 C38         2.3370    4.4680   -4.2850 c3        1 MOL     -0.385376
    118 O18        -0.0080    4.7230   -4.2200 oh        1 MOL     -0.625989
    119 H53         2.8470    3.0820   -2.0410 hn        1 MOL      0.080607
    120 H54         0.7550    5.0690   -1.8180 h1        1 MOL      0.062284
    121 H55         0.9200    2.9250   -3.8970 h1        1 MOL     -0.047566
    122 H56         0.1120    4.6490   -5.1660 ho        1 MOL      0.393621
    123 H57         3.2070    3.8580   -4.0670 hc        1 MOL      0.083253
    124 H58         2.1010    4.4730   -5.3430 hc        1 MOL      0.083253
    125 H59         2.4790    5.4750   -3.8800 hc        1 MOL      0.083253
    126 N11        -0.3550    3.3190   -0.2200 n         1 MOL     -0.648693
    127 C39        -1.4320    2.6340    0.4970 c3        1 MOL     -0.155123
    128 C40        -2.8340    2.9160   -0.2240 c         1 MOL      0.677319
    129 O19        -2.9490    3.9100   -0.9580 o         1 MOL     -0.529752
    130 C41        -1.4430    3.1660    1.9480 c3        1 MOL      0.400158
    131 C42        -1.7030    4.6250    2.0750 c3        1 MOL     -0.094356
    132 O20        -0.1990    2.9250    2.4170 oh        1 MOL     -0.683043
    133 H60         0.1790    3.9690    0.3390 hn        1 MOL      0.466359
    134 H61        -1.3270    1.5510    0.3890 h1        1 MOL      0.051735
    135 H62        -2.1980    2.6640    2.5570 h1        1 MOL      0.015221
    136 H63         0.1970    2.1370    2.0590 ho        1 MOL      0.385828
    137 H64        -1.3960    5.0210    3.0470 hc        1 MOL      0.021844
    138 H65        -1.3100    5.2590    1.2810 hc        1 MOL      0.021844
    139 H66        -2.7950    4.6240    2.0620 hc        1 MOL      0.021844
    140 N12        -3.7970    1.9770   -0.0380 n         1 MOL     -0.475483
    141 C43        -5.1730    1.9510   -0.5930 c3        1 MOL      0.143198
    142 C44        -5.5060    0.6460   -1.3350 c         1 MOL      0.455133
    143 O21        -6.5030    0.6570   -2.0170 o         1 MOL     -0.567272
    144 C45        -6.2490    2.3800    0.3630 c3        1 MOL     -0.035342
    145 C46        -6.0980    3.7230    1.1260 c3        1 MOL     -0.301149
    146 C47        -6.0920    4.9800    0.1960 c3        1 MOL      0.046236
    147 C48        -7.3770    5.0570   -0.6240 c3        1 MOL      0.180503
    148 N13        -7.6470    6.4650   -1.0750 n4        1 MOL     -0.503930
    149 H67        -3.5480    1.3180    0.6850 hn        1 MOL      0.165668
    150 H68        -5.2320    2.6150   -1.4590 h1        1 MOL      0.021940
    151 H69        -6.4810    1.5760    1.0690 hc        1 MOL      0.063695
    152 H70        -7.1770    2.4090   -0.2040 hc        1 MOL      0.063695
    153 H71        -5.1370    3.7060    1.6480 hc        1 MOL      0.110849
    154 H72        -6.9210    3.7580    1.8540 hc        1 MOL      0.110849
    155 H73        -5.1350    5.0160   -0.3230 hc        1 MOL      0.003189
    156 H74        -6.1210    5.8670    0.8290 hc        1 MOL      0.003189
    157 H75        -8.2480    4.8080   -0.0250 hx        1 MOL      0.049532
    158 H76        -7.3890    4.3630   -1.4650 hx        1 MOL      0.049532
    159 H77        -7.9570    7.0850   -0.3410 hn        1 MOL      0.356158
    160 H78        -6.8890    6.8810   -1.6020 hn        1 MOL      0.356158
    161 H79        -8.4140    6.3130   -1.7090 hn        1 MOL      0.356158
    162 N14        -4.7590   -0.4150   -1.1930 n         1 MOL     -0.126115
    163 C49        -4.9340   -1.6580   -1.9540 c3        1 MOL     -0.198176
    164 C50        -6.3800   -2.1840   -1.8660 c         1 MOL      0.445042
    165 O22        -6.9940   -2.2610   -0.7900 o         1 MOL     -0.469098
    166 C51        -3.9320   -2.7030   -1.4180 c3        1 MOL      0.281894
    167 C52        -3.9970   -4.1840   -1.9250 c3        1 MOL     -0.790399
    168 C53        -3.7650   -4.3050   -3.4170 c         1 MOL      1.094071
    169 O23        -4.6640   -4.0960   -4.2430 o         1 MOL     -0.873078
    170 O24        -2.5970   -4.7340   -3.7250 o         1 MOL     -0.873078
    171 H80        -3.9940   -0.3340   -0.5350 hn        1 MOL      0.113162
    172 H81        -4.7910   -1.4770   -3.0200 h1        1 MOL      0.070397
    173 H82        -3.8260   -2.7330   -0.3370 hc        1 MOL      0.030689
    174 H83        -2.9470   -2.2710   -1.6400 hc        1 MOL      0.030689
    175 H84        -5.0000   -4.5450   -1.6700 hc        1 MOL      0.205061
    176 H85        -3.3030   -4.8750   -1.4290 hc        1 MOL      0.205061
    177 N15        -6.8060   -2.8300   -2.9660 n         1 MOL     -0.341410
    178 C54        -8.1220   -3.5050   -3.0820 c3        1 MOL     -0.198848
    179 H86        -8.0140   -4.4110   -3.6800 h1        1 MOL      0.098120
    180 H87        -8.4850   -3.7680   -2.0900 h1        1 MOL      0.098120
    181 H88        -8.8330   -2.8350   -3.5650 h1        1 MOL      0.098120
    182 H89        -6.2210   -2.8200   -3.7970 hn        1 MOL      0.394667
    183 Ca1        -0.1850   -4.1340   -4.1860 Ca        1 MOL      1.751832
    184 O25         1.6030   -2.3350   -5.4900 oh        1 MOL     -0.841742
    185 H90         1.9960   -2.4100   -6.3630 ho        1 MOL      0.428937
    186 H91         1.5970   -1.3980   -5.3020 ho        1 MOL      0.428937
    187 O26         2.2660   -5.2750   -4.2670 oh        1 MOL     -0.841742
    188 H92         2.3950   -5.9200   -3.5650 ho        1 MOL      0.428937
    189 H93         3.1520   -4.9730   -4.4810 ho        1 MOL      0.428937
    190 O27        -1.3760   -2.5620   -6.2170 oh        1 MOL     -0.841742
    191 H94        -1.2370   -1.6260   -6.3030 ho        1 MOL      0.428937
    192 H95        -2.2650   -2.6990   -6.5690 ho        1 MOL      0.428937
@<TRIPOS>BOND
     1    1    2 1   
     2    1    4 1   
     3    1    5 1   
     4    1    6 1   
     5    2    3 2   
     6    2    7 1   
     7    7    8 1   
     8    7   15 1   
     9    8    9 1   
    10    8   11 1   
    11    8   16 1   
    12    9   10 2   
    13    9   19 1   
    14   11   12 1   
    15   11   17 1   
    16   11   18 1   
    17   12   13 1   
    18   12   14 1   
    19   19   20 1   
    20   19   28 1   
    21   20   21 1   
    22   20   23 1   
    23   20   29 1   
    24   21   22 2   
    25   21   41 1   
    26   23   24 1   
    27   23   30 1   
    28   23   31 1   
    29   24   25 1   
    30   24   32 1   
    31   24   33 1   
    32   25   26 1   
    33   25   34 1   
    34   25   35 1   
    35   26   27 1   
    36   26   36 1   
    37   26   37 1   
    38   27   38 1   
    39   27   39 1   
    40   27   40 1   
    41   41   42 1   
    42   41   49 1   
    43   42   43 1   
    44   42   45 1   
    45   42   50 1   
    46   43   44 2   
    47   43   53 1   
    48   45   46 1   
    49   45   51 1   
    50   45   52 1   
    51   46   47 1   
    52   46   48 1   
    53   53   54 1   
    54   53   57 1   
    55   54   55 1   
    56   54   58 1   
    57   54   59 1   
    58   55   56 2   
    59   55   60 1   
    60   60   61 1   
    61   60   68 1   
    62   61   62 1   
    63   61   64 1   
    64   61   69 1   
    65   62   63 2   
    66   62   72 1   
    67   64   65 1   
    68   64   70 1   
    69   64   71 1   
    70   65   66 1   
    71   65   67 1   
    72   72   73 1   
    73   72   76 1   
    74   73   74 1   
    75   73   77 1   
    76   73   78 1   
    77   74   75 2   
    78   74   79 1   
    79   79   80 1   
    80   79   86 1   
    81   80   81 1   
    82   80   83 1   
    83   80   87 1   
    84   81   82 2   
    85   81   93 1   
    86   83   84 1   
    87   83   85 1   
    88   83   88 1   
    89   84   90 1   
    90   84   91 1   
    91   84   92 1   
    92   85   89 1   
    93   93   94 1   
    94   93  101 1   
    95   94   95 1   
    96   94   97 1   
    97   94  102 1   
    98   95   96 2   
    99   95  112 1   
   100   97   98 1   
   101   97   99 1   
   102   97  103 1   
   103   98  100 1   
   104   98  104 1   
   105   98  105 1   
   106   99  106 1   
   107   99  107 1   
   108   99  108 1   
   109  100  109 1   
   110  100  110 1   
   111  100  111 1   
   112  112  113 1   
   113  112  119 1   
   114  113  114 1   
   115  113  116 1   
   116  113  120 1   
   117  114  115 2   
   118  114  126 1   
   119  116  117 1   
   120  116  118 1   
   121  116  121 1   
   122  117  123 1   
   123  117  124 1   
   124  117  125 1   
   125  118  122 1   
   126  126  127 1   
   127  126  133 1   
   128  127  128 1   
   129  127  130 1   
   130  127  134 1   
   131  128  129 2   
   132  128  140 1   
   133  130  131 1   
   134  130  132 1   
   135  130  135 1   
   136  131  137 1   
   137  131  138 1   
   138  131  139 1   
   139  132  136 1   
   140  140  141 1   
   141  140  149 1   
   142  141  142 1   
   143  141  144 1   
   144  141  150 1   
   145  142  143 2   
   146  142  162 1   
   147  144  145 1   
   148  144  151 1   
   149  144  152 1   
   150  145  146 1   
   151  145  153 1   
   152  145  154 1   
   153  146  147 1   
   154  146  155 1   
   155  146  156 1   
   156  147  148 1   
   157  147  157 1   
   158  147  158 1   
   159  148  159 1   
   160  148  160 1   
   161  148  161 1   
   162  162  163 1   
   163  162  171 1   
   164  163  164 1   
   165  163  166 1   
   166  163  172 1   
   167  164  165 2   
   168  164  177 1   
   169  166  167 1   
   170  166  173 1   
   171  166  174 1   
   172  167  168 1   
   173  167  175 1   
   174  167  176 1   
   175  168  169 1   
   176  168  170 1   
   177  177  178 1   
   178  177  182 1   
   179  178  179 1   
   180  178  180 1   
   181  178  181 1   
   182  184  185 1   
   183  184  186 1   
   184  187  188 1   
   185  187  189 1   
   186  190  191 1   
   187  190  192 1   
@<TRIPOS>SUBSTRUCTURE
     1 MOL         1 TEMP              0 ****  ****    0 ROOT
