@<TRIPOS>MOLECULE
MOL
  181   177     1     0     0
SMALL
resp


@<TRIPOS>ATOM
      1 C1         -5.2980   -5.7500   -4.7450 c3        1 MOL     -0.433833
      2 C2         -4.9000   -4.3380   -4.4030 c         1 MOL      0.700600
      3 O1         -3.9800   -3.7910   -5.0050 o         1 MOL     -0.597046
      4 H1         -6.2230   -5.7360   -5.3230 hc        1 MOL      0.115771
      5 H2         -4.5090   -6.2180   -5.3340 hc        1 MOL      0.115771
      6 H3         -5.4530   -6.3160   -3.8270 hc        1 MOL      0.115771
      7 N1         -5.5310   -3.6840   -3.4580 n         1 MOL     -0.537938
      8 C3         -6.6390   -4.1800   -2.6830 c3        1 MOL     -0.036253
      9 C4         -6.2660   -4.0780   -1.2240 c         1 MOL      0.818045
     10 O2         -5.6730   -3.1060   -0.7640 o         1 MOL     -0.723541
     11 C5         -8.0020   -3.5760   -3.0380 c3        1 MOL      0.036683
     12 C6         -8.0280   -2.0850   -3.1180 c         1 MOL      0.620393
     13 O3         -8.7150   -1.4460   -3.9590 o         1 MOL     -0.682252
     14 O4         -7.3320   -1.4890   -2.2690 o         1 MOL     -0.682252
     15 H4         -5.2270   -2.7440   -3.2560 hn        1 MOL      0.373959
     16 H5         -6.7860   -5.2520   -2.8090 h1        1 MOL     -0.015558
     17 H6         -8.6390   -3.8330   -2.1990 hc        1 MOL     -0.008776
     18 H7         -8.4480   -4.0370   -3.9190 hc        1 MOL     -0.008776
     19 N2         -6.6860   -5.1670   -0.5700 n         1 MOL     -0.639170
     20 C7         -6.5210   -5.4580    0.8030 c3        1 MOL      0.204317
     21 C8         -7.0400   -4.4370    1.8140 c         1 MOL      0.349691
     22 O5         -7.2790   -4.9460    2.9490 o         1 MOL     -0.535092
     23 C9         -5.0740   -5.6930    1.1930 c3        1 MOL     -0.470884
     24 H8         -7.0400   -5.9190   -1.1490 hn        1 MOL      0.369157
     25 H9         -7.1730   -6.3280    0.9020 h1        1 MOL      0.050257
     26 H10        -4.7600   -6.5000    0.5290 hc        1 MOL      0.151964
     27 H11        -4.5200   -4.7600    1.2060 hc        1 MOL      0.151964
     28 H12        -4.9980   -6.0270    2.2310 hc        1 MOL      0.151964
     29 N3         -7.1900   -3.1530    1.5220 n         1 MOL      0.006304
     30 C10        -7.6250   -2.1720    2.4730 c3        1 MOL     -0.337607
     31 C11        -8.0610   -0.8680    1.8010 c         1 MOL      0.692964
     32 O6         -7.7020   -0.5470    0.6830 o         1 MOL     -0.570296
     33 C12        -6.5200   -1.8870    3.5540 c3        1 MOL      0.149710
     34 C13        -5.2000   -1.5430    2.8210 c         1 MOL      0.562427
     35 O7         -5.1630   -0.9160    1.6780 o         1 MOL     -0.634378
     36 O8         -4.1760   -1.6800    3.5160 o         1 MOL     -0.634378
     37 H13        -6.9480   -2.8160    0.5970 hn        1 MOL      0.061582
     38 H14        -8.5410   -2.5510    2.9330 h1        1 MOL      0.066415
     39 H15        -6.4050   -2.7550    4.2020 hc        1 MOL     -0.006281
     40 H16        -6.7100   -0.9960    4.1510 hc        1 MOL     -0.006281
     41 N4         -8.8060   -0.0760    2.5850 n         1 MOL     -0.409208
     42 C14        -9.3750    1.1700    2.3240 c3        1 MOL     -0.334920
     43 C15        -8.3660    2.3130    2.3460 c         1 MOL      0.539163
     44 O9         -8.7390    3.4570    2.0810 o         1 MOL     -0.574161
     45 H17        -8.9280   -0.3540    3.5490 hn        1 MOL      0.304187
     46 H18       -10.0010    1.2590    3.2140 h1        1 MOL      0.171464
     47 H19       -10.0420    1.1550    1.4640 h1        1 MOL      0.171464
     48 N5         -7.0830    2.0410    2.5470 n         1 MOL     -0.328268
     49 C16        -6.0260    3.0100    2.5190 c3        1 MOL      0.030974
     50 C17        -5.3180    3.0140    1.1620 c         1 MOL      0.714651
     51 O10        -5.1520    1.9550    0.5150 o         1 MOL     -0.621276
     52 C18        -5.0200    2.6890    3.6730 c3        1 MOL     -0.314208
     53 C19        -5.6480    2.7050    5.0830 c         1 MOL      0.580483
     54 N6         -6.5480    3.5670    5.3740 n         1 MOL     -0.729134
     55 O11        -5.4740    1.8000    5.8950 o         1 MOL     -0.521732
     56 H20        -6.7920    1.0780    2.5680 hn        1 MOL      0.302306
     57 H21        -6.4950    3.9770    2.7250 h1        1 MOL      0.038996
     58 H22        -4.2350    3.4320    3.5460 hc        1 MOL      0.126689
     59 H23        -4.5940    1.6870    3.5690 hc        1 MOL      0.126689
     60 H24        -6.7220    4.3160    4.7110 hn        1 MOL      0.358951
     61 H25        -6.9110    3.5310    6.3210 hn        1 MOL      0.358951
     62 N7         -4.7480    4.1680    0.7420 n         1 MOL     -0.668016
     63 C20        -3.6760    4.1600   -0.2850 c3        1 MOL      0.393962
     64 C21        -3.1400    5.5420   -0.6930 c         1 MOL      0.443947
     65 O12        -3.6280    6.5520   -0.1410 o         1 MOL     -0.535081
     66 H26        -4.8280    5.0140    1.2740 hn        1 MOL      0.326605
     67 H27        -4.0520    3.7450   -1.2160 h1        1 MOL     -0.019317
     68 H28        -2.7500    3.6550   -0.0230 h1        1 MOL     -0.019317
     69 N8         -2.1800    5.6850   -1.6440 n         1 MOL     -0.564633
     70 C22        -1.2640    4.6520   -2.1360 c3        1 MOL      0.129929
     71 C23        -0.2080    4.1800   -1.1380 c         1 MOL      0.632559
     72 O13        -0.0230    4.8240   -0.0800 o         1 MOL     -0.533113
     73 C24        -0.6320    5.0090   -3.4400 c3        1 MOL      0.409823
     74 C25        -1.6830    5.3870   -4.5390 c3        1 MOL     -0.397373
     75 O14         0.1520    6.1800   -3.1930 oh        1 MOL     -0.623353
     76 H29        -2.1130    6.6340   -1.9920 hn        1 MOL      0.346251
     77 H30        -1.8500    3.7510   -2.3190 h1        1 MOL     -0.054925
     78 H31        -0.0110    4.1960   -3.8370 h1        1 MOL      0.021921
     79 H32        -0.0940    6.8410   -3.8470 ho        1 MOL      0.395606
     80 H33        -2.3810    6.1500   -4.1910 hc        1 MOL      0.089471
     81 H34        -1.0730    5.8860   -5.2840 hc        1 MOL      0.089471
     82 H35        -2.0770    4.4670   -4.9730 hc        1 MOL      0.089471
     83 N9          0.6260    3.2220   -1.5580 n         1 MOL     -0.557195
     84 C26         1.8930    2.6810   -0.9570 c3        1 MOL      0.087120
     85 C27         2.8920    2.2580   -2.1000 c         1 MOL      0.713982
     86 O15         2.5160    2.2010   -3.2370 o         1 MOL     -0.608371
     87 C28         1.5190    1.4080   -0.1890 c3        1 MOL      0.025880
     88 C29         0.7600    0.3160   -0.8820 c3        1 MOL      0.062740
     89 C30         0.7770    1.9370    1.0460 c3        1 MOL     -0.324025
     90 C31         0.5360   -0.8860   -0.1200 c3        1 MOL     -0.071901
     91 H36         0.3670    2.7180   -2.3920 hn        1 MOL      0.231002
     92 H37         2.4080    3.4160   -0.3340 h1        1 MOL      0.141776
     93 H38         2.4300    0.8550    0.0060 hc        1 MOL      0.053325
     94 H39         1.4190    0.1010   -1.7280 hc        1 MOL     -0.020954
     95 H40        -0.1060    0.7050   -1.4120 hc        1 MOL     -0.020954
     96 H41        -0.2800    2.1340    0.8920 hc        1 MOL      0.085883
     97 H42         0.9240    1.2470    1.8730 hc        1 MOL      0.085883
     98 H43         1.2680    2.8010    1.4930 hc        1 MOL      0.085883
     99 H44         0.0620   -0.7290    0.8480 hc        1 MOL      0.006838
    100 H45        -0.0400   -1.6260   -0.6790 hc        1 MOL      0.006838
    101 H46         1.4790   -1.3700    0.1680 hc        1 MOL      0.006838
    102 N10         4.2000    1.9590   -1.8950 n         1 MOL     -0.754282
    103 C32         4.9880    2.1910   -0.6480 c3        1 MOL      0.503311
    104 C33         6.3300    1.4210   -0.7660 c         1 MOL      0.384803
    105 O16         6.7640    1.0140   -1.8260 o         1 MOL     -0.529927
    106 C34         5.3140    3.6770   -0.4540 c3        1 MOL     -0.253654
    107 C35         5.9460    4.4420   -1.5680 c         1 MOL      0.761932
    108 O17         5.9460    3.9740   -2.7190 o         1 MOL     -0.742367
    109 O18         6.5120    5.5130   -1.3040 o         1 MOL     -0.742367
    110 H47         4.7930    1.9420   -2.7210 hn        1 MOL      0.383398
    111 H48         4.4170    1.8310    0.2000 h1        1 MOL     -0.080982
    112 H49         5.9270    3.7550    0.4420 hc        1 MOL     -0.012550
    113 H50         4.3100    4.0740   -0.3220 hc        1 MOL     -0.012550
    114 N11         7.0040    1.2080    0.3640 n         1 MOL     -0.360267
    115 C36         8.2940    0.5880    0.6310 c3        1 MOL      0.502925
    116 C37         8.3310    0.0070    2.1120 c         1 MOL      0.179629
    117 O19         7.8720    0.6180    3.0700 o         1 MOL     -0.471889
    118 C38         9.4110    1.6220    0.3260 c3        1 MOL     -0.458881
    119 C39        10.8060    1.0240    0.3190 ca        1 MOL      0.141161
    120 C40        11.6490    1.0020    1.4370 ca        1 MOL     -0.132323
    121 C41        11.2530    0.4850   -0.8800 ca        1 MOL     -0.132323
    122 C42        12.9210    0.3560    1.3750 ca        1 MOL     -0.183677
    123 C43        12.5240   -0.1160   -0.9850 ca        1 MOL     -0.183677
    124 C44        13.3520   -0.2590    0.1260 ca        1 MOL     -0.106954
    125 H51         6.6030    1.5420    1.2250 hn        1 MOL      0.222369
    126 H52         8.4140   -0.2260   -0.0770 h1        1 MOL     -0.070774
    127 H53         9.2510    2.5240    0.9160 hc        1 MOL      0.155102
    128 H54         9.2960    1.8030   -0.7390 hc        1 MOL      0.155102
    129 H55        11.3050    1.4860    2.3470 ha        1 MOL      0.122874
    130 H56        10.5950    0.5160   -1.7340 ha        1 MOL      0.122874
    131 H57        13.4550    0.2140    2.3130 ha        1 MOL      0.118790
    132 H58        12.8960   -0.5700   -1.8880 ha        1 MOL      0.118790
    133 H59        14.2670   -0.8150    0.0410 ha        1 MOL      0.098480
    134 N12         8.9660   -1.1640    2.3200 n         1 MOL      0.080105
    135 C45         9.6880   -2.0350    1.2910 c3        1 MOL     -0.144424
    136 C46         8.7870   -2.7350    0.2850 c         1 MOL      0.599038
    137 O20         9.2910   -3.0080   -0.7890 o         1 MOL     -0.585256
    138 C47        10.6440   -2.8930    2.0880 c3        1 MOL      0.003677
    139 C48         9.9160   -3.0180    3.4140 c3        1 MOL      0.143454
    140 C49         9.0350   -1.8180    3.6030 c3        1 MOL     -0.310236
    141 H60        10.4030   -1.4690    0.6770 h1        1 MOL      0.121617
    142 H61        10.8200   -3.9100    1.7220 hc        1 MOL      0.001976
    143 H62        11.6330   -2.4550    2.2180 hc        1 MOL      0.001976
    144 H63         9.3780   -3.9550    3.5770 hc        1 MOL     -0.021137
    145 H64        10.6940   -3.0590    4.1870 hc        1 MOL     -0.021137
    146 H65         8.0500   -2.1950    3.8770 h1        1 MOL      0.112752
    147 H66         9.4900   -1.0620    4.2350 h1        1 MOL      0.112752
    148 N13         7.4780   -3.0120    0.6130 n         1 MOL     -0.445142
    149 C50         6.4170   -3.5500   -0.3400 c3        1 MOL      0.196420
    150 C51         6.4810   -5.1010   -0.5100 c         1 MOL      0.353253
    151 O21         6.2070   -5.8600    0.4240 o         1 MOL     -0.558241
    152 C52         5.0020   -3.0780    0.0080 c3        1 MOL     -0.153643
    153 C53         4.7980   -1.5300    0.2760 c3        1 MOL      0.169787
    154 C54         5.1650   -0.9680    1.6580 c         1 MOL      0.588259
    155 O22         4.5740    0.1090    2.0610 o         1 MOL     -0.641814
    156 O23         5.8600   -1.7240    2.3940 o         1 MOL     -0.641814
    157 H67         7.1250   -2.8180    1.5330 hn        1 MOL      0.287644
    158 H68         6.5800   -3.0680   -1.3040 h1        1 MOL      0.077297
    159 H69         4.7150   -3.5420    0.9610 hc        1 MOL      0.024828
    160 H70         4.3240   -3.4670   -0.7520 hc        1 MOL      0.024828
    161 H71         3.7760   -1.2860   -0.0200 hc        1 MOL     -0.061742
    162 H72         5.2920   -0.9800   -0.5320 hc        1 MOL     -0.061742
    163 N14         6.8580   -5.6780   -1.6300 n         1 MOL     -0.286011
    164 C55         7.3590   -5.0250   -2.8180 c3        1 MOL     -0.087514
    165 H73         8.4490   -5.0320   -2.8030 h1        1 MOL      0.054930
    166 H74         7.0050   -5.5560   -3.7020 h1        1 MOL      0.054930
    167 H75         7.0040   -3.9950   -2.8450 h1        1 MOL      0.054930
    168 H76         6.8930   -6.6830   -1.6100 hn        1 MOL      0.258636
    169 Ca1        -5.5720   -0.3120   -0.8020 Ca        1 MOL      1.693266
    170 O24        -2.9190   -0.1170    0.2470 oh        1 MOL     -0.831674
    171 H77        -2.9750    0.0790    1.1840 ho        1 MOL      0.418305
    172 H78        -2.7760   -1.0540    0.2040 ho        1 MOL      0.418305
    173 O25        -3.8930   -1.4320   -2.7670 oh        1 MOL     -0.831674
    174 H79        -3.3110   -1.8780   -2.1480 ho        1 MOL      0.418305
    175 H80        -3.3430   -1.2280   -3.5230 ho        1 MOL      0.418305
    176 O26        -4.6620    1.4840   -2.5330 oh        1 MOL     -0.831674
    177 H81        -5.1200    2.1620   -3.0310 ho        1 MOL      0.418305
    178 H82        -3.7860    1.4510   -2.9270 ho        1 MOL      0.418305
    179 O27        -7.2780    1.7150   -1.3590 oh        1 MOL     -0.831674
    180 H83        -7.8100    1.5610   -2.1330 ho        1 MOL      0.418305
    181 H84        -7.4890    2.6100   -1.0960 ho        1 MOL      0.418305
@<TRIPOS>BOND
     1    1    2 1   
     2    1    4 1   
     3    1    5 1   
     4    1    6 1   
     5    2    3 2   
     6    2    7 1   
     7    7    8 1   
     8    7   15 1   
     9    8    9 1   
    10    8   11 1   
    11    8   16 1   
    12    9   10 2   
    13    9   19 1   
    14   11   12 1   
    15   11   17 1   
    16   11   18 1   
    17   12   13 1   
    18   12   14 1   
    19   19   20 1   
    20   19   24 1   
    21   20   21 1   
    22   20   23 1   
    23   20   25 1   
    24   21   22 2   
    25   21   29 1   
    26   23   26 1   
    27   23   27 1   
    28   23   28 1   
    29   29   30 1   
    30   29   37 1   
    31   30   31 1   
    32   30   33 1   
    33   30   38 1   
    34   31   32 2   
    35   31   41 1   
    36   33   34 1   
    37   33   39 1   
    38   33   40 1   
    39   34   35 1   
    40   34   36 1   
    41   41   42 1   
    42   41   45 1   
    43   42   43 1   
    44   42   46 1   
    45   42   47 1   
    46   43   44 2   
    47   43   48 1   
    48   48   49 1   
    49   48   56 1   
    50   49   50 1   
    51   49   52 1   
    52   49   57 1   
    53   50   51 2   
    54   50   62 1   
    55   52   53 1   
    56   52   58 1   
    57   52   59 1   
    58   53   54 1   
    59   53   55 2   
    60   54   60 1   
    61   54   61 1   
    62   62   63 1   
    63   62   66 1   
    64   63   64 1   
    65   63   67 1   
    66   63   68 1   
    67   64   65 2   
    68   64   69 1   
    69   69   70 1   
    70   69   76 1   
    71   70   71 1   
    72   70   73 1   
    73   70   77 1   
    74   71   72 2   
    75   71   83 1   
    76   73   74 1   
    77   73   75 1   
    78   73   78 1   
    79   74   80 1   
    80   74   81 1   
    81   74   82 1   
    82   75   79 1   
    83   83   84 1   
    84   83   91 1   
    85   84   85 1   
    86   84   87 1   
    87   84   92 1   
    88   85   86 2   
    89   85  102 1   
    90   87   88 1   
    91   87   89 1   
    92   87   93 1   
    93   88   90 1   
    94   88   94 1   
    95   88   95 1   
    96   89   96 1   
    97   89   97 1   
    98   89   98 1   
    99   90   99 1   
   100   90  100 1   
   101   90  101 1   
   102  102  103 1   
   103  102  110 1   
   104  103  104 1   
   105  103  106 1   
   106  103  111 1   
   107  104  105 2   
   108  104  114 1   
   109  106  107 1   
   110  106  112 1   
   111  106  113 1   
   112  107  108 1   
   113  107  109 1   
   114  114  115 1   
   115  114  125 1   
   116  115  116 1   
   117  115  118 1   
   118  115  126 1   
   119  116  117 2   
   120  116  134 1   
   121  118  119 1   
   122  118  127 1   
   123  118  128 1   
   124  119  120 ar  
   125  119  121 ar  
   126  120  122 ar  
   127  120  129 1   
   128  121  123 ar  
   129  121  130 1   
   130  122  124 ar  
   131  122  131 1   
   132  123  124 ar  
   133  123  132 1   
   134  124  133 1   
   135  134  135 1   
   136  134  140 1   
   137  135  136 1   
   138  135  138 1   
   139  135  141 1   
   140  136  137 2   
   141  136  148 1   
   142  138  139 1   
   143  138  142 1   
   144  138  143 1   
   145  139  140 1   
   146  139  144 1   
   147  139  145 1   
   148  140  146 1   
   149  140  147 1   
   150  148  149 1   
   151  148  157 1   
   152  149  150 1   
   153  149  152 1   
   154  149  158 1   
   155  150  151 2   
   156  150  163 1   
   157  152  153 1   
   158  152  159 1   
   159  152  160 1   
   160  153  154 1   
   161  153  161 1   
   162  153  162 1   
   163  154  155 1   
   164  154  156 1   
   165  163  164 1   
   166  163  168 1   
   167  164  165 1   
   168  164  166 1   
   169  164  167 1   
   170  170  171 1   
   171  170  172 1   
   172  173  174 1   
   173  173  175 1   
   174  176  177 1   
   175  176  178 1   
   176  179  180 1   
   177  179  181 1   
@<TRIPOS>SUBSTRUCTURE
     1 MOL         1 TEMP              0 ****  ****    0 ROOT
