@<TRIPOS>MOLECULE
MOL
  178   175     1     0     0
SMALL
resp


@<TRIPOS>ATOM
      1 C1          2.8190   -2.4450    4.0970 c3        1 MOL     -0.315729
      2 C2          3.9100   -1.7080    3.3300 c         1 MOL      0.604895
      3 O1          3.8820   -1.7820    2.1170 o         1 MOL     -0.492974
      4 H1          2.1180   -2.8920    3.3910 hc        1 MOL      0.072351
      5 H2          3.2680   -3.2270    4.7080 hc        1 MOL      0.072351
      6 H3          2.2870   -1.7420    4.7390 hc        1 MOL      0.072351
      7 N1          4.7850   -0.9920    4.0830 n         1 MOL     -0.453932
      8 C3          5.9360   -0.2230    3.5670 c3        1 MOL      0.028919
      9 C4          6.8530   -1.0360    2.6130 c         1 MOL      0.556870
     10 O2          7.4290   -0.3970    1.7450 o         1 MOL     -0.458416
     11 C5          6.7550    0.3090    4.8030 c3        1 MOL     -0.179634
     12 C6          7.7050    1.4090    4.2220 c         1 MOL      0.696167
     13 O3          7.1420    2.4700    3.8100 o         1 MOL     -0.711235
     14 O4          8.9340    1.2290    4.1920 o         1 MOL     -0.711235
     15 H4          4.5590   -0.9720    5.0690 hn        1 MOL      0.254312
     16 H5          5.4740    0.5940    3.0190 h1        1 MOL      0.104467
     17 H6          7.3750   -0.4570    5.2540 hc        1 MOL      0.002555
     18 H7          6.1220    0.8260    5.5310 hc        1 MOL      0.002555
     19 N2          6.9300   -2.3730    2.7000 n         1 MOL     -0.366880
     20 C7          7.7010   -3.1620    1.6680 c3        1 MOL      0.240658
     21 C8          7.1100   -2.9050    0.2570 c         1 MOL      0.410596
     22 O5          7.7910   -2.6760   -0.7450 o         1 MOL     -0.522308
     23 C9          9.2680   -2.9650    1.8610 c3        1 MOL     -0.558829
     24 H8          6.6130   -2.8600    3.5290 hn        1 MOL      0.210432
     25 H9          7.5000   -4.2260    1.7590 h1        1 MOL      0.027738
     26 H10         9.6020   -1.9490    1.6650 hc        1 MOL      0.154124
     27 H11         9.4750   -3.2830    2.8920 hc        1 MOL      0.154124
     28 H12         9.8370   -3.5880    1.1670 hc        1 MOL      0.154124
     29 N3          5.7610   -2.8320    0.0740 n         1 MOL     -0.598940
     30 C10         5.1270   -2.5700   -1.2450 c3        1 MOL      0.573958
     31 C11         5.4410   -1.2030   -1.9160 c         1 MOL      0.301432
     32 O6          5.5530   -1.1640   -3.1140 o         1 MOL     -0.469834
     33 C12         5.1920   -3.7900   -2.2550 c3        1 MOL     -0.215803
     34 C13         4.1450   -3.7970   -3.3470 c         1 MOL      0.735450
     35 O7          4.4500   -4.3970   -4.3980 o         1 MOL     -0.728841
     36 O8          3.0520   -3.2040   -3.2020 o         1 MOL     -0.728841
     37 H13         5.2350   -2.9850    0.9250 hn        1 MOL      0.195321
     38 H14         4.0620   -2.3730   -1.0690 h1        1 MOL     -0.057558
     39 H15         5.0620   -4.7180   -1.7060 hc        1 MOL      0.028383
     40 H16         6.1600   -3.8070   -2.7710 hc        1 MOL      0.028383
     41 N4          5.7680   -0.1780   -1.1180 n         1 MOL     -0.036887
     42 C14         6.3040    1.0500   -1.6410 c3        1 MOL     -0.067078
     43 C15         5.3030    1.9200   -2.4130 c         1 MOL      0.501623
     44 O9          5.6510    2.7590   -3.2890 o         1 MOL     -0.563618
     45 H17         5.6940   -0.3410   -0.1320 hn        1 MOL      0.106094
     46 H18         7.0820    0.8560   -2.3860 h1        1 MOL      0.066354
     47 H19         6.7570    1.6730   -0.8760 h1        1 MOL      0.066354
     48 N5          4.0340    1.7670   -2.1260 n         1 MOL     -0.253093
     49 C16         2.9040    2.2430   -2.8410 c3        1 MOL     -0.179970
     50 C17         2.6130    3.7820   -2.5030 c         1 MOL      0.602619
     51 O10         2.8460    4.1790   -1.4170 o         1 MOL     -0.481224
     52 C18         1.7010    1.2880   -2.6330 c3        1 MOL     -0.097193
     53 C19         1.9600   -0.1250   -2.8950 c         1 MOL      0.447442
     54 N6          2.4410   -0.4840   -4.0290 n         1 MOL     -0.502650
     55 O11         1.8490   -1.0100   -2.0610 o         1 MOL     -0.596311
     56 H20         3.7760    1.2520   -1.2950 hn        1 MOL      0.238059
     57 H21         3.0380    2.2530   -3.9280 h1        1 MOL      0.061027
     58 H22         0.9200    1.5780   -3.3420 hc        1 MOL      0.080806
     59 H23         1.1500    1.5090   -1.7130 hc        1 MOL      0.080806
     60 H24         2.4150    0.2080   -4.7630 hn        1 MOL      0.276754
     61 H25         2.5640   -1.4820   -4.1400 hn        1 MOL      0.276754
     62 N7          1.9650    4.5420   -3.4030 n         1 MOL     -0.401782
     63 C20         1.6580    5.9450   -3.2770 c3        1 MOL     -0.338696
     64 C21         0.2660    6.0830   -2.6260 c         1 MOL      0.622214
     65 O12        -0.7020    5.4670   -3.0620 o         1 MOL     -0.500493
     66 H26         1.6280    4.0890   -4.2390 hn        1 MOL      0.295755
     67 H27         1.4980    6.3570   -4.2760 h1        1 MOL      0.156789
     68 H28         2.4630    6.3940   -2.7150 h1        1 MOL      0.156789
     69 N8          0.2370    7.0270   -1.6710 n         1 MOL     -0.517479
     70 C22        -0.9140    7.4710   -0.9270 c3        1 MOL      0.001294
     71 C23        -1.7200    6.2950   -0.2650 c         1 MOL      0.496428
     72 O13        -2.9500    6.2290   -0.2930 o         1 MOL     -0.569710
     73 C24        -0.4450    8.3910    0.2120 c3        1 MOL      0.162462
     74 C25        -1.6380    9.0610    0.9180 c3        1 MOL     -0.420976
     75 O14         0.4880    7.8870    1.1020 oh        1 MOL     -0.558473
     76 H29         1.1010    7.4730   -1.4120 hn        1 MOL      0.294080
     77 H30        -1.6650    7.9440   -1.5460 h1        1 MOL      0.104561
     78 H31         0.1060    9.2170   -0.2260 h1        1 MOL      0.027688
     79 H32         0.7390    8.6380    1.6510 ho        1 MOL      0.429800
     80 H33        -2.2110    8.2720    1.4160 hc        1 MOL      0.117320
     81 H34        -1.2650    9.7770    1.6530 hc        1 MOL      0.117320
     82 H35        -2.3590    9.5080    0.2410 hc        1 MOL      0.117320
     83 N9         -0.9950    5.3550    0.3320 n         1 MOL     -0.227565
     84 C26        -1.4810    4.2280    1.1270 c3        1 MOL      0.019562
     85 C27        -1.3830    2.8700    0.3910 c         1 MOL      0.557465
     86 O15        -0.4660    2.7480   -0.4430 o         1 MOL     -0.520857
     87 C28        -0.7960    4.3260    2.4980 c3        1 MOL      0.015721
     88 C29         0.6570    3.9040    2.5770 c3        1 MOL      0.094332
     89 C30        -1.0240    5.6480    3.1920 c3        1 MOL     -0.101575
     90 C31         1.6380    4.8930    1.9380 c3        1 MOL     -0.016685
     91 H36        -0.0010    5.5460    0.3470 hn        1 MOL      0.259669
     92 H37        -2.4990    4.4440    1.4370 h1        1 MOL      0.047357
     93 H38        -1.3780    3.6630    3.1410 hc        1 MOL     -0.015173
     94 H39         0.8310    2.8980    2.1830 hc        1 MOL     -0.003559
     95 H40         0.9360    3.8250    3.6340 hc        1 MOL     -0.003559
     96 H41        -2.0870    5.8120    3.4010 hc        1 MOL      0.016089
     97 H42        -0.6490    5.6240    4.2130 hc        1 MOL      0.016089
     98 H43        -0.6730    6.5350    2.6610 hc        1 MOL      0.016089
     99 H44         1.3460    5.8930    2.2520 hc        1 MOL     -0.001000
    100 H45         2.6370    4.6430    2.2960 hc        1 MOL     -0.001000
    101 H46         1.6770    4.7340    0.8520 hc        1 MOL     -0.001000
    102 N10        -2.2100    1.8780    0.6120 n         1 MOL     -0.638751
    103 C32        -2.2080    0.5900   -0.1570 c3        1 MOL      0.427516
    104 C33        -3.5900   -0.0170   -0.3420 c         1 MOL      0.334819
    105 O16        -3.6870   -1.2240   -0.5040 o         1 MOL     -0.402240
    106 C34        -1.2940   -0.3330    0.6550 c3        1 MOL     -0.487787
    107 C35        -0.7050   -1.5040   -0.1310 c         1 MOL      0.635117
    108 O17         0.0440   -2.4230    0.3570 o         1 MOL     -0.666666
    109 O18        -0.8700   -1.5200   -1.3820 o         1 MOL     -0.666666
    110 H47        -3.0170    2.0040    1.2000 hn        1 MOL      0.292441
    111 H48        -1.7860    0.8390   -1.1330 h1        1 MOL      0.035480
    112 H49        -1.8050   -0.6570    1.5610 hc        1 MOL      0.180213
    113 H50        -0.3910    0.2150    0.9400 hc        1 MOL      0.180213
    114 N11        -4.6980    0.7670   -0.2570 n         1 MOL     -0.379304
    115 C36        -6.0730    0.2920   -0.3820 c3        1 MOL      0.235486
    116 C37        -6.5680   -0.9710    0.4820 c         1 MOL     -0.021080
    117 O19        -6.4120   -0.9570    1.7280 o         1 MOL     -0.329222
    118 C38        -6.9970    1.4540   -0.1270 c3        1 MOL     -0.365727
    119 C39        -8.5120    1.1730   -0.1100 ca        1 MOL      0.093285
    120 C40        -9.2450    1.3570   -1.3300 ca        1 MOL     -0.130553
    121 C41        -9.2740    0.6800    0.9940 ca        1 MOL     -0.130553
    122 C42       -10.6470    1.1440   -1.4140 ca        1 MOL     -0.142852
    123 C43       -10.6570    0.3910    0.8940 ca        1 MOL     -0.142852
    124 C44       -11.3960    0.6950   -0.3050 ca        1 MOL     -0.098411
    125 H51        -4.5690    1.7520   -0.1090 hn        1 MOL      0.238633
    126 H52        -6.1530    0.0710   -1.4530 h1        1 MOL      0.043705
    127 H53        -6.7690    2.1690   -0.9140 hc        1 MOL      0.142295
    128 H54        -6.7730    1.8990    0.8380 hc        1 MOL      0.142295
    129 H55        -8.6480    1.8160   -2.1040 ha        1 MOL      0.116225
    130 H56        -8.7450    0.4750    1.9110 ha        1 MOL      0.116225
    131 H57       -11.1770    1.4040   -2.3240 ha        1 MOL      0.112169
    132 H58       -11.3190    0.1060    1.7020 ha        1 MOL      0.112169
    133 H59       -12.4760    0.7120   -0.3500 ha        1 MOL      0.112630
    134 N12        -7.2670   -1.9890   -0.1120 n         1 MOL      0.205291
    135 C45        -7.6700   -3.1460    0.6070 c3        1 MOL     -0.042848
    136 C46        -6.5270   -3.8360    1.4450 c         1 MOL      0.307210
    137 O20        -6.9170   -4.6970    2.2490 o         1 MOL     -0.520569
    138 C47        -8.1800   -4.1220   -0.4680 c3        1 MOL      0.053775
    139 C48        -8.5290   -3.2590   -1.6510 c3        1 MOL     -0.110311
    140 C49        -7.6000   -2.0480   -1.4910 c3        1 MOL      0.001659
    141 H60        -8.4940   -2.8110    1.2320 h1        1 MOL      0.068647
    142 H61        -7.4900   -4.9420   -0.6700 hc        1 MOL      0.024748
    143 H62        -9.0760   -4.6720   -0.1510 hc        1 MOL      0.024748
    144 H63        -8.2940   -3.6470   -2.6470 hc        1 MOL      0.030951
    145 H64        -9.5920   -3.0710   -1.5750 hc        1 MOL      0.030951
    146 H65        -6.7060   -2.3850   -2.0240 h1        1 MOL      0.022440
    147 H66        -7.9790   -1.0790   -1.8100 h1        1 MOL      0.022440
    148 N13        -5.2230   -3.5030    1.3100 n         1 MOL     -0.185874
    149 C50        -4.1520   -3.9450    2.2160 c3        1 MOL     -0.080772
    150 C51        -3.8160   -3.0220    3.4500 c         1 MOL      0.391572
    151 O21        -2.8060   -3.1560    4.1370 o         1 MOL     -0.511422
    152 C52        -2.8770   -4.0940    1.3610 c3        1 MOL      0.008019
    153 C53        -2.9670   -4.8730    0.0940 c3        1 MOL     -0.013298
    154 C54        -1.6720   -4.8330   -0.7240 c         1 MOL      0.610376
    155 O22        -0.5700   -5.1510   -0.2500 o         1 MOL     -0.733881
    156 O23        -1.6320   -4.3540   -1.8720 o         1 MOL     -0.733881
    157 H67        -4.9380   -2.7280    0.7190 hn        1 MOL      0.220634
    158 H68        -4.3960   -4.9070    2.6610 h1        1 MOL      0.102163
    159 H69        -2.0990   -4.6020    1.9330 hc        1 MOL      0.051311
    160 H70        -2.4400   -3.1410    1.0830 hc        1 MOL      0.051311
    161 H71        -3.7480   -4.4240   -0.4980 hc        1 MOL     -0.024578
    162 H72        -3.1220   -5.9480    0.2110 hc        1 MOL     -0.024578
    163 N14        -4.6490   -1.9540    3.6610 n         1 MOL     -0.142848
    164 C55        -4.4240   -0.8510    4.5600 c3        1 MOL     -0.153867
    165 H73        -3.3700   -0.5770    4.5400 h1        1 MOL      0.065590
    166 H74        -5.0270    0.0020    4.2460 h1        1 MOL      0.065590
    167 H75        -4.7040   -1.1440    5.5710 h1        1 MOL      0.065590
    168 H76        -5.4450   -1.8980    3.0440 hn        1 MOL      0.126062
    169 Ca1         0.8070   -3.4480   -1.9480 Ca        1 MOL      1.806710
    170 O24         1.9800   -5.8160   -2.8610 oh        1 MOL     -0.877657
    171 H77         2.3900   -6.6470   -2.6120 ho        1 MOL      0.420810
    172 H78         2.1600   -5.7320   -3.8070 ho        1 MOL      0.420810
    173 O25         2.5000   -4.0320    0.0880 oh        1 MOL     -0.877657
    174 H79         2.0240   -4.2970    0.8690 ho        1 MOL      0.420810
    175 H80         3.3880   -4.3500    0.2260 ho        1 MOL      0.420810
    176 O26        -0.2080   -3.3990   -4.3860 oh        1 MOL     -0.877657
    177 H81        -0.0700   -3.9940   -5.1190 ho        1 MOL      0.420810
    178 H82        -0.8140   -2.7360   -4.7320 ho        1 MOL      0.420810
@<TRIPOS>BOND
     1    1    2 1   
     2    1    4 1   
     3    1    5 1   
     4    1    6 1   
     5    2    3 2   
     6    2    7 1   
     7    7    8 1   
     8    7   15 1   
     9    8    9 1   
    10    8   11 1   
    11    8   16 1   
    12    9   10 2   
    13    9   19 1   
    14   11   12 1   
    15   11   17 1   
    16   11   18 1   
    17   12   13 1   
    18   12   14 1   
    19   19   20 1   
    20   19   24 1   
    21   20   21 1   
    22   20   23 1   
    23   20   25 1   
    24   21   22 2   
    25   21   29 1   
    26   23   26 1   
    27   23   27 1   
    28   23   28 1   
    29   29   30 1   
    30   29   37 1   
    31   30   31 1   
    32   30   33 1   
    33   30   38 1   
    34   31   32 2   
    35   31   41 1   
    36   33   34 1   
    37   33   39 1   
    38   33   40 1   
    39   34   35 1   
    40   34   36 1   
    41   41   42 1   
    42   41   45 1   
    43   42   43 1   
    44   42   46 1   
    45   42   47 1   
    46   43   44 2   
    47   43   48 1   
    48   48   49 1   
    49   48   56 1   
    50   49   50 1   
    51   49   52 1   
    52   49   57 1   
    53   50   51 2   
    54   50   62 1   
    55   52   53 1   
    56   52   58 1   
    57   52   59 1   
    58   53   54 1   
    59   53   55 2   
    60   54   60 1   
    61   54   61 1   
    62   62   63 1   
    63   62   66 1   
    64   63   64 1   
    65   63   67 1   
    66   63   68 1   
    67   64   65 2   
    68   64   69 1   
    69   69   70 1   
    70   69   76 1   
    71   70   71 1   
    72   70   73 1   
    73   70   77 1   
    74   71   72 2   
    75   71   83 1   
    76   73   74 1   
    77   73   75 1   
    78   73   78 1   
    79   74   80 1   
    80   74   81 1   
    81   74   82 1   
    82   75   79 1   
    83   83   84 1   
    84   83   91 1   
    85   84   85 1   
    86   84   87 1   
    87   84   92 1   
    88   85   86 2   
    89   85  102 1   
    90   87   88 1   
    91   87   89 1   
    92   87   93 1   
    93   88   90 1   
    94   88   94 1   
    95   88   95 1   
    96   89   96 1   
    97   89   97 1   
    98   89   98 1   
    99   90   99 1   
   100   90  100 1   
   101   90  101 1   
   102  102  103 1   
   103  102  110 1   
   104  103  104 1   
   105  103  106 1   
   106  103  111 1   
   107  104  105 2   
   108  104  114 1   
   109  106  107 1   
   110  106  112 1   
   111  106  113 1   
   112  107  108 1   
   113  107  109 1   
   114  114  115 1   
   115  114  125 1   
   116  115  116 1   
   117  115  118 1   
   118  115  126 1   
   119  116  117 2   
   120  116  134 1   
   121  118  119 1   
   122  118  127 1   
   123  118  128 1   
   124  119  120 ar  
   125  119  121 ar  
   126  120  122 ar  
   127  120  129 1   
   128  121  123 ar  
   129  121  130 1   
   130  122  124 ar  
   131  122  131 1   
   132  123  124 ar  
   133  123  132 1   
   134  124  133 1   
   135  134  135 1   
   136  134  140 1   
   137  135  136 1   
   138  135  138 1   
   139  135  141 1   
   140  136  137 2   
   141  136  148 1   
   142  138  139 1   
   143  138  142 1   
   144  138  143 1   
   145  139  140 1   
   146  139  144 1   
   147  139  145 1   
   148  140  146 1   
   149  140  147 1   
   150  148  149 1   
   151  148  157 1   
   152  149  150 1   
   153  149  152 1   
   154  149  158 1   
   155  150  151 2   
   156  150  163 1   
   157  152  153 1   
   158  152  159 1   
   159  152  160 1   
   160  153  154 1   
   161  153  161 1   
   162  153  162 1   
   163  154  155 1   
   164  154  156 1   
   165  163  164 1   
   166  163  168 1   
   167  164  165 1   
   168  164  166 1   
   169  164  167 1   
   170  170  171 1   
   171  170  172 1   
   172  173  174 1   
   173  173  175 1   
   174  176  177 1   
   175  176  178 1   
@<TRIPOS>SUBSTRUCTURE
     1 MOL         1 TEMP              0 ****  ****    0 ROOT
