@<TRIPOS>MOLECULE
MOL
  181   177     1     0     0
SMALL
resp


@<TRIPOS>ATOM
      1 C1         -4.7720   -1.5020   -3.7610 c3        1 MOL     -0.376650
      2 C2         -6.1850   -0.8070   -3.6030 c         1 MOL      0.628048
      3 O1         -6.3350    0.3830   -3.5670 o         1 MOL     -0.553302
      4 H1         -4.5170   -1.5660   -4.8190 hc        1 MOL      0.095552
      5 H2         -4.0180   -0.9140   -3.2400 hc        1 MOL      0.095552
      6 H3         -4.8100   -2.5050   -3.3360 hc        1 MOL      0.095552
      7 N1         -7.1880   -1.6240   -3.6310 n         1 MOL     -0.452945
      8 C3         -8.5970   -1.4280   -3.3850 c3        1 MOL      0.146262
      9 C4         -8.8210   -0.9190   -1.9700 c         1 MOL      0.569963
     10 O2         -9.8750   -1.1140   -1.4320 o         1 MOL     -0.547967
     11 C5         -9.3010   -2.7520   -3.5960 c3        1 MOL     -0.356253
     12 C6        -10.7410   -2.4170   -3.9640 c         1 MOL      0.796220
     13 O3        -11.6700   -3.0890   -3.4760 o         1 MOL     -0.738646
     14 O4        -10.9780   -1.5980   -4.8670 o         1 MOL     -0.738646
     15 H4         -6.9460   -2.6060   -3.6960 hn        1 MOL      0.248174
     16 H5         -8.9950   -0.6860   -4.0820 h1        1 MOL      0.057948
     17 H6         -9.0780   -3.4390   -2.7840 hc        1 MOL      0.058021
     18 H7         -8.8480   -3.0950   -4.5270 hc        1 MOL      0.058021
     19 N2         -7.8430   -0.3080   -1.4030 n         1 MOL     -0.457074
     20 C7         -7.6880    0.1400   -0.0200 c3        1 MOL      0.263086
     21 C8         -6.3110   -0.2240    0.5180 c         1 MOL      0.498735
     22 O5         -5.3120   -0.3850   -0.1790 o         1 MOL     -0.516076
     23 C9         -8.0900    1.6800    0.1330 c3        1 MOL     -0.378231
     24 H8         -7.0250   -0.0710   -1.9510 hn        1 MOL      0.195257
     25 H9         -8.3640   -0.5220    0.5270 h1        1 MOL      0.005567
     26 H10        -7.8950    1.9320    1.1730 hc        1 MOL      0.104814
     27 H11        -7.4400    2.2360   -0.5320 hc        1 MOL      0.104814
     28 H12        -9.1160    1.8750   -0.1960 hc        1 MOL      0.104814
     29 N3         -6.2560   -0.4130    1.8160 n         1 MOL     -0.519221
     30 C10        -5.1150   -0.6280    2.7240 c3        1 MOL      0.413150
     31 C11        -5.1250    0.2540    4.0250 c         1 MOL      0.280749
     32 O6         -6.1840    0.6930    4.5850 o         1 MOL     -0.523186
     33 C12        -4.9180   -2.0950    3.1170 c3        1 MOL     -0.327142
     34 C13        -3.4530   -2.5340    3.2070 c         1 MOL      0.778028
     35 O7         -2.5330   -1.6780    3.1250 o         1 MOL     -0.745007
     36 O8         -3.1600   -3.7060    3.2620 o         1 MOL     -0.745007
     37 H13        -7.1890   -0.5540    2.1790 hn        1 MOL      0.253115
     38 H14        -4.2080   -0.3010    2.2070 h1        1 MOL      0.021270
     39 H15        -5.4530   -2.7520    2.4180 hc        1 MOL      0.065697
     40 H16        -5.4080   -2.2420    4.0900 hc        1 MOL      0.065697
     41 N4         -3.9190    0.4480    4.5480 n         1 MOL     -0.213697
     42 C14        -3.6980    1.1250    5.8450 c3        1 MOL     -0.098996
     43 C15        -2.7580    2.2930    5.6130 c         1 MOL      0.565423
     44 O9         -2.5930    3.0740    6.6180 o         1 MOL     -0.562793
     45 H17        -3.2110    0.0100    3.9700 hn        1 MOL      0.250834
     46 H18        -3.1980    0.4240    6.5190 h1        1 MOL      0.089884
     47 H19        -4.6810    1.4280    6.2330 h1        1 MOL      0.089884
     48 N5         -2.0970    2.4020    4.4320 n         1 MOL     -0.449035
     49 C16        -1.0350    3.4160    4.1080 c3        1 MOL      0.352756
     50 C17        -1.3550    4.3090    2.9010 c         1 MOL      0.294065
     51 O10        -2.0580    3.9080    1.9110 o         1 MOL     -0.464299
     52 C18         0.3590    2.7490    3.9820 c3        1 MOL     -0.273169
     53 C19         0.7020    2.1360    5.3310 c         1 MOL      0.674595
     54 N6          0.6040    0.8180    5.3750 n         1 MOL     -0.848016
     55 O11         1.0990    2.7460    6.2940 o         1 MOL     -0.559091
     56 H20        -2.4390    1.8390    3.6710 hn        1 MOL      0.208805
     57 H21        -1.0000    4.1250    4.9310 h1        1 MOL     -0.037366
     58 H22         1.0350    3.5460    3.7020 hc        1 MOL      0.094140
     59 H23         0.4220    1.9990    3.1940 hc        1 MOL      0.094140
     60 H24         0.5760    0.2610    4.5400 hn        1 MOL      0.381649
     61 H25         0.6790    0.3730    6.2760 hn        1 MOL      0.381649
     62 N7         -0.8140    5.5050    2.8830 n         1 MOL     -0.191935
     63 C20        -0.7840    6.5260    1.8850 c3        1 MOL     -0.341890
     64 C21         0.3230    6.3570    0.8070 c         1 MOL      0.648118
     65 O12         1.3750    5.7830    1.1510 o         1 MOL     -0.492575
     66 H26        -0.3940    5.7520    3.7670 hn        1 MOL      0.256415
     67 H27        -0.5050    7.4270    2.4290 h1        1 MOL      0.140916
     68 H28        -1.7370    6.6730    1.3820 h1        1 MOL      0.140916
     69 N8          0.1680    6.9830   -0.4140 n         1 MOL     -0.512066
     70 C22         1.3470    7.2250   -1.3790 c3        1 MOL     -0.154425
     71 C23         1.7880    5.9960   -2.1150 c         1 MOL      0.442579
     72 O13         2.9470    5.8670   -2.5160 o         1 MOL     -0.558655
     73 C24         1.2540    8.5320   -2.2120 c3        1 MOL      0.498585
     74 C25         0.4120    8.5290   -3.5070 c3        1 MOL     -0.460062
     75 O14         0.7250    9.5550   -1.3240 oh        1 MOL     -0.645344
     76 H29        -0.6260    7.5900   -0.5460 hn        1 MOL      0.275563
     77 H30         2.1840    7.4420   -0.7220 h1        1 MOL      0.131774
     78 H31         2.2810    8.8410   -2.4220 h1        1 MOL      0.035739
     79 H32        -0.2110    9.4150   -1.1800 ho        1 MOL      0.384227
     80 H33         0.4100    9.5020   -3.9980 hc        1 MOL      0.112954
     81 H34         0.7440    7.7610   -4.2000 hc        1 MOL      0.112954
     82 H35        -0.6430    8.3750   -3.2820 hc        1 MOL      0.112954
     83 N9          0.9180    5.0170   -2.3390 n         1 MOL     -0.190453
     84 C26         1.1930    3.6470   -2.8420 c3        1 MOL      0.208012
     85 C27         1.0850    2.5700   -1.6800 c         1 MOL      0.330895
     86 O15         0.2550    2.7160   -0.7900 o         1 MOL     -0.442768
     87 C28         0.3130    3.3500   -4.1350 c3        1 MOL     -0.012664
     88 C29         0.6280    4.3930   -5.2320 c3        1 MOL      0.003386
     89 C30         0.4370    1.9050   -4.7740 c3        1 MOL      0.053092
     90 C31         2.0890    4.6090   -5.7260 c3        1 MOL     -0.207422
     91 H36        -0.0350    5.0920   -2.0350 hn        1 MOL      0.175732
     92 H37         2.2410    3.5380   -3.1230 h1        1 MOL     -0.001738
     93 H38        -0.7190    3.4300   -3.8170 hc        1 MOL      0.024697
     94 H39         0.3670    5.3680   -4.8100 hc        1 MOL      0.005636
     95 H40        -0.1140    4.2850   -6.0300 hc        1 MOL      0.005636
     96 H41         0.4710    1.0950   -4.0500 hc        1 MOL     -0.018064
     97 H42        -0.1680    1.7680   -5.6780 hc        1 MOL     -0.018064
     98 H43         1.4640    1.8410   -5.1150 hc        1 MOL     -0.018064
     99 H44         2.8740    4.5280   -4.9800 hc        1 MOL      0.054742
    100 H45         2.2730    3.8970   -6.5270 hc        1 MOL      0.054742
    101 H46         2.1200    5.6260   -6.1240 hc        1 MOL      0.054742
    102 N10         1.7800    1.4270   -1.7470 n         1 MOL     -0.380100
    103 C32         1.7780    0.3340   -0.7540 c3        1 MOL      0.220848
    104 C33         3.1870   -0.1890   -0.3140 c         1 MOL      0.568387
    105 O16         3.3700   -1.4210   -0.2810 o         1 MOL     -0.527494
    106 C34         0.7750   -0.7620   -1.2340 c3        1 MOL      0.039403
    107 C35         0.3900   -1.7520   -0.1280 c         1 MOL      0.817282
    108 O17         0.1170   -2.8990   -0.4390 o         1 MOL     -0.788887
    109 O18         0.3560   -1.3840    1.0480 o         1 MOL     -0.788887
    110 H47         2.4410    1.3360   -2.5060 hn        1 MOL      0.243049
    111 H48         1.3490    0.7540    0.1530 h1        1 MOL     -0.011348
    112 H49         1.1530   -1.3050   -2.0990 hc        1 MOL     -0.024668
    113 H50        -0.1830   -0.3040   -1.4710 hc        1 MOL     -0.024668
    114 N11         4.2100    0.6490   -0.2070 n         1 MOL     -0.613426
    115 C36         5.5590    0.2170    0.1870 c3        1 MOL      0.350353
    116 C37         6.0360   -0.9120   -0.6900 c         1 MOL      0.101158
    117 O19         5.8320   -0.7770   -1.9010 o         1 MOL     -0.450219
    118 C38         6.5860    1.3450    0.1510 c3        1 MOL     -0.288424
    119 C39         8.0030    0.9650    0.5280 ca        1 MOL      0.125370
    120 C40         8.3560    1.0590    1.8930 ca        1 MOL     -0.194353
    121 C41         8.9950    0.6910   -0.4450 ca        1 MOL     -0.194353
    122 C42         9.6870    0.7380    2.2360 ca        1 MOL     -0.077059
    123 C43        10.3510    0.4080   -0.1000 ca        1 MOL     -0.077059
    124 C44        10.6790    0.4060    1.2580 ca        1 MOL     -0.167952
    125 H51         4.0190    1.6450   -0.2760 hn        1 MOL      0.304840
    126 H52         5.4390   -0.1870    1.1990 h1        1 MOL      0.003710
    127 H53         6.2310    2.2100    0.7140 hc        1 MOL      0.112266
    128 H54         6.6510    1.6470   -0.8990 hc        1 MOL      0.112266
    129 H55         7.6060    1.2590    2.6420 ha        1 MOL      0.140481
    130 H56         8.7270    0.7590   -1.4850 ha        1 MOL      0.140481
    131 H57         9.9310    0.7890    3.2840 ha        1 MOL      0.106936
    132 H58        11.1070    0.1870   -0.8390 ha        1 MOL      0.106936
    133 H59        11.6160    0.0160    1.6340 ha        1 MOL      0.117075
    134 N12         6.6910   -1.9430   -0.1750 n         1 MOL      0.132629
    135 C45         7.3710   -2.9310   -0.9630 c3        1 MOL     -0.015390
    136 C46         6.3750   -3.8000   -1.8060 c         1 MOL      0.289110
    137 O20         6.8480   -4.3760   -2.8030 o         1 MOL     -0.521180
    138 C47         8.2280   -3.8200   -0.0340 c3        1 MOL      0.011841
    139 C48         8.2760   -2.9930    1.2510 c3        1 MOL     -0.058645
    140 C49         6.9680   -2.1640    1.2830 c3        1 MOL     -0.054358
    141 H60         8.0040   -2.3220   -1.6220 h1        1 MOL      0.068377
    142 H61         7.7590   -4.7960    0.1510 hc        1 MOL      0.034320
    143 H62         9.2140   -4.0770   -0.4180 hc        1 MOL      0.034320
    144 H63         8.4310   -3.6050    2.1400 hc        1 MOL      0.020826
    145 H64         9.0850   -2.2720    1.1480 hc        1 MOL      0.020826
    146 H65         6.1860   -2.8170    1.6600 h1        1 MOL      0.038482
    147 H66         7.1020   -1.2410    1.8420 h1        1 MOL      0.038482
    148 N13         5.1020   -3.9120   -1.4100 n         1 MOL     -0.239572
    149 C50         4.1080   -4.7670   -2.1040 c3        1 MOL     -0.057496
    150 C51         3.6900   -4.3340   -3.5130 c         1 MOL      0.386377
    151 O21         3.1890   -5.1040   -4.2360 o         1 MOL     -0.516129
    152 C52         2.8090   -4.9160   -1.1590 c3        1 MOL      0.074695
    153 C53         3.0360   -5.9280   -0.0180 c3        1 MOL     -0.219417
    154 C54         1.7160   -5.9920    0.7710 c         1 MOL      0.732188
    155 O22         1.0060   -7.0210    0.7000 o         1 MOL     -0.726587
    156 O23         1.3130   -4.9920    1.4640 o         1 MOL     -0.726587
    157 H67         4.8360   -3.4220   -0.5650 hn        1 MOL      0.259582
    158 H68         4.5440   -5.7590   -2.2230 h1        1 MOL      0.125243
    159 H69         1.9830   -5.2060   -1.8070 hc        1 MOL      0.023129
    160 H70         2.6400   -3.9580   -0.6750 hc        1 MOL      0.023129
    161 H71         3.8560   -5.6010    0.6130 hc        1 MOL      0.025537
    162 H72         3.2690   -6.8760   -0.4860 hc        1 MOL      0.025537
    163 N14         4.1000   -3.1220   -3.9770 n         1 MOL     -0.092100
    164 C55         4.0060   -2.4740   -5.3110 c3        1 MOL     -0.220186
    165 H73         3.4430   -3.1170   -5.9880 h1        1 MOL      0.089870
    166 H74         3.4970   -1.5160   -5.2140 h1        1 MOL      0.089870
    167 H75         5.0080   -2.3150   -5.7100 h1        1 MOL      0.089870
    168 H76         4.4260   -2.5430   -3.2090 hn        1 MOL      0.157009
    169 Ca1        -0.9970   -3.8650    1.7980 Ca        1 MOL      1.715443
    170 O24        -0.8370   -5.6980    3.7680 oh        1 MOL     -0.786563
    171 H77        -1.7210   -5.9070    4.0800 ho        1 MOL      0.385791
    172 H78        -0.3380   -6.5050    3.9070 ho        1 MOL      0.385791
    173 O25         0.3860   -2.9920    3.8920 oh        1 MOL     -0.786563
    174 H79         0.8860   -2.1940    3.7350 ho        1 MOL      0.385791
    175 H80         0.4820   -3.1610    4.8370 ho        1 MOL      0.385791
    176 O26        -2.7660   -3.1880   -0.1320 oh        1 MOL     -0.786563
    177 H81        -3.6970   -3.3690   -0.0080 ho        1 MOL      0.385791
    178 H82        -2.5870   -3.4990   -1.0250 ho        1 MOL      0.385791
    179 O27        -1.8690   -6.1530    1.1030 oh        1 MOL     -0.786563
    180 H83        -1.2300   -6.8530    1.0450 ho        1 MOL      0.385791
    181 H84        -2.6240   -6.4750    0.6080 ho        1 MOL      0.385791
@<TRIPOS>BOND
     1    1    2 1   
     2    1    4 1   
     3    1    5 1   
     4    1    6 1   
     5    2    3 2   
     6    2    7 1   
     7    7    8 1   
     8    7   15 1   
     9    8    9 1   
    10    8   11 1   
    11    8   16 1   
    12    9   10 2   
    13    9   19 1   
    14   11   12 1   
    15   11   17 1   
    16   11   18 1   
    17   12   13 1   
    18   12   14 1   
    19   19   20 1   
    20   19   24 1   
    21   20   21 1   
    22   20   23 1   
    23   20   25 1   
    24   21   22 2   
    25   21   29 1   
    26   23   26 1   
    27   23   27 1   
    28   23   28 1   
    29   29   30 1   
    30   29   37 1   
    31   30   31 1   
    32   30   33 1   
    33   30   38 1   
    34   31   32 2   
    35   31   41 1   
    36   33   34 1   
    37   33   39 1   
    38   33   40 1   
    39   34   35 1   
    40   34   36 1   
    41   41   42 1   
    42   41   45 1   
    43   42   43 1   
    44   42   46 1   
    45   42   47 1   
    46   43   44 2   
    47   43   48 1   
    48   48   49 1   
    49   48   56 1   
    50   49   50 1   
    51   49   52 1   
    52   49   57 1   
    53   50   51 2   
    54   50   62 1   
    55   52   53 1   
    56   52   58 1   
    57   52   59 1   
    58   53   54 1   
    59   53   55 2   
    60   54   60 1   
    61   54   61 1   
    62   62   63 1   
    63   62   66 1   
    64   63   64 1   
    65   63   67 1   
    66   63   68 1   
    67   64   65 2   
    68   64   69 1   
    69   69   70 1   
    70   69   76 1   
    71   70   71 1   
    72   70   73 1   
    73   70   77 1   
    74   71   72 2   
    75   71   83 1   
    76   73   74 1   
    77   73   75 1   
    78   73   78 1   
    79   74   80 1   
    80   74   81 1   
    81   74   82 1   
    82   75   79 1   
    83   83   84 1   
    84   83   91 1   
    85   84   85 1   
    86   84   87 1   
    87   84   92 1   
    88   85   86 2   
    89   85  102 1   
    90   87   88 1   
    91   87   89 1   
    92   87   93 1   
    93   88   90 1   
    94   88   94 1   
    95   88   95 1   
    96   89   96 1   
    97   89   97 1   
    98   89   98 1   
    99   90   99 1   
   100   90  100 1   
   101   90  101 1   
   102  102  103 1   
   103  102  110 1   
   104  103  104 1   
   105  103  106 1   
   106  103  111 1   
   107  104  105 2   
   108  104  114 1   
   109  106  107 1   
   110  106  112 1   
   111  106  113 1   
   112  107  108 1   
   113  107  109 1   
   114  114  115 1   
   115  114  125 1   
   116  115  116 1   
   117  115  118 1   
   118  115  126 1   
   119  116  117 2   
   120  116  134 1   
   121  118  119 1   
   122  118  127 1   
   123  118  128 1   
   124  119  120 ar  
   125  119  121 ar  
   126  120  122 ar  
   127  120  129 1   
   128  121  123 ar  
   129  121  130 1   
   130  122  124 ar  
   131  122  131 1   
   132  123  124 ar  
   133  123  132 1   
   134  124  133 1   
   135  134  135 1   
   136  134  140 1   
   137  135  136 1   
   138  135  138 1   
   139  135  141 1   
   140  136  137 2   
   141  136  148 1   
   142  138  139 1   
   143  138  142 1   
   144  138  143 1   
   145  139  140 1   
   146  139  144 1   
   147  139  145 1   
   148  140  146 1   
   149  140  147 1   
   150  148  149 1   
   151  148  157 1   
   152  149  150 1   
   153  149  152 1   
   154  149  158 1   
   155  150  151 2   
   156  150  163 1   
   157  152  153 1   
   158  152  159 1   
   159  152  160 1   
   160  153  154 1   
   161  153  161 1   
   162  153  162 1   
   163  154  155 1   
   164  154  156 1   
   165  163  164 1   
   166  163  168 1   
   167  164  165 1   
   168  164  166 1   
   169  164  167 1   
   170  170  171 1   
   171  170  172 1   
   172  173  174 1   
   173  173  175 1   
   174  176  177 1   
   175  176  178 1   
   176  179  180 1   
   177  179  181 1   
@<TRIPOS>SUBSTRUCTURE
     1 MOL         1 TEMP              0 ****  ****    0 ROOT
