@<TRIPOS>MOLECULE
MOL
  189   185     1     0     0
SMALL
resp


@<TRIPOS>ATOM
      1 C1          9.7580   -0.7680    2.2520 c3        1 MOL     -0.667268
      2 C2          8.5700   -0.5680    1.2480 c         1 MOL      0.846584
      3 O1          7.4200   -0.6830    1.6100 o         1 MOL     -0.680889
      4 H1          9.9590   -1.8330    2.3690 hc        1 MOL      0.165717
      5 H2         10.6490   -0.2710    1.8650 hc        1 MOL      0.165717
      6 H3          9.4940   -0.3400    3.2190 hc        1 MOL      0.165717
      7 N1          8.8620   -0.3660   -0.0430 n         1 MOL     -0.604993
      8 C3          7.8080   -0.0860   -0.9910 c3        1 MOL      0.092899
      9 C4          6.9430   -1.2730   -1.4220 c         1 MOL      0.473398
     10 O2          6.5240   -1.4490   -2.5840 o         1 MOL     -0.475923
     11 C5          8.2360    0.6730   -2.2030 c3        1 MOL     -0.026009
     12 C6          9.1630    1.8440   -1.9560 c         1 MOL      0.639941
     13 O3          8.8090    2.9670   -2.3850 o         1 MOL     -0.621719
     14 O4         10.2650    1.6270   -1.4390 o         1 MOL     -0.621719
     15 H4          9.8250   -0.3290   -0.3650 hn        1 MOL      0.281222
     16 H5          7.1940    0.6260   -0.4440 h1        1 MOL      0.109034
     17 H6          7.3300    1.0550   -2.6540 hc        1 MOL      0.016138
     18 H7          8.7000    0.0260   -2.9550 hc        1 MOL      0.016138
     19 N2          6.6130   -2.2400   -0.5450 n         1 MOL     -0.413765
     20 C7          6.1510   -3.6090   -0.9530 c3        1 MOL      0.117366
     21 C8          4.8000   -3.6540   -1.5910 c         1 MOL      0.536468
     22 O5          4.7970   -4.4120   -2.5910 o         1 MOL     -0.561679
     23 C9          6.2910   -4.5540    0.2410 c3        1 MOL     -0.099258
     24 C10         7.7780   -4.8420    0.5340 c3        1 MOL     -0.044348
     25 C11         7.8740   -5.7120    1.8260 c3        1 MOL     -0.086964
     26 C12         9.3630   -6.0760    2.1940 c3        1 MOL      0.095451
     27 N3          9.3890   -6.6590    3.5700 n4        1 MOL     -0.364622
     28 H8          6.9590   -2.1840    0.4050 hn        1 MOL      0.303765
     29 H9          6.7180   -4.0340   -1.7800 h1        1 MOL      0.062868
     30 H10         5.7050   -5.4470    0.0020 hc        1 MOL      0.025057
     31 H11         5.8020   -4.1160    1.1010 hc        1 MOL      0.025057
     32 H12         8.2940   -3.8870    0.6690 hc        1 MOL      0.037378
     33 H13         8.1600   -5.3860   -0.3370 hc        1 MOL      0.037378
     34 H14         7.4270   -6.6910    1.6480 hc        1 MOL      0.059224
     35 H15         7.5320   -5.1640    2.7040 hc        1 MOL      0.059224
     36 H16         9.9360   -5.1560    2.0640 hx        1 MOL      0.062582
     37 H17         9.6660   -6.7530    1.3980 hx        1 MOL      0.062582
     38 H18        10.3310   -6.7830    3.9020 hn        1 MOL      0.290168
     39 H19         8.9220   -6.1060    4.2750 hn        1 MOL      0.290168
     40 H20         9.0760   -7.6200    3.5400 hn        1 MOL      0.290168
     41 N4          3.7580   -2.9100   -1.1460 n         1 MOL     -0.427067
     42 C13         3.6760   -2.1860    0.1550 c3        1 MOL      0.081671
     43 C14         3.7840   -0.6490   -0.1240 c         1 MOL      0.170755
     44 O6          3.9860   -0.2070   -1.2360 o         1 MOL     -0.355318
     45 C15         2.4160   -2.5120    0.9360 c3        1 MOL     -0.330156
     46 C16         1.0260   -2.3640    0.3210 c         1 MOL      0.824553
     47 O7          0.8590   -1.6880   -0.7490 o         1 MOL     -0.672591
     48 O8          0.1160   -3.0600    0.7450 o         1 MOL     -0.672591
     49 H21         2.9350   -2.9450   -1.7270 hn        1 MOL      0.334553
     50 H22         4.4780   -2.5650    0.7870 h1        1 MOL      0.116928
     51 H23         2.3560   -2.0210    1.9060 hc        1 MOL      0.073307
     52 H24         2.4360   -3.5770    1.1900 hc        1 MOL      0.073307
     53 N5          3.7070    0.1750    0.9070 n         1 MOL     -0.320004
     54 C17         3.9690    1.6050    0.8780 c3        1 MOL      0.076987
     55 C18         2.8300    2.2920    0.1050 c         1 MOL      0.413422
     56 O9          1.7320    1.8130   -0.1180 o         1 MOL     -0.614222
     57 H25         3.7010   -0.2170    1.8310 hn        1 MOL      0.269823
     58 H26         4.9610    1.7730    0.4710 h1        1 MOL      0.052508
     59 H27         4.0480    1.9940    1.8930 h1        1 MOL      0.052508
     60 N6          3.1100    3.5340   -0.1200 n         1 MOL     -0.259026
     61 C19         2.2020    4.5730   -0.6740 c3        1 MOL      0.223788
     62 C20         2.7110    5.9490   -0.1540 c         1 MOL      0.465209
     63 O10         3.8990    6.0410    0.2390 o         1 MOL     -0.509416
     64 C21         2.1800    4.6160   -2.1920 c3        1 MOL     -0.467546
     65 C22         1.6810    3.2970   -2.8960 c         1 MOL      0.692745
     66 O11         2.3980    2.7430   -3.7850 o         1 MOL     -0.650622
     67 O12         0.6010    2.7600   -2.5280 o         1 MOL     -0.650622
     68 H28         3.9840    3.8660    0.2600 hn        1 MOL      0.227967
     69 H29         1.1760    4.3780   -0.3610 h1        1 MOL      0.051917
     70 H30         3.2170    4.7080   -2.5260 hc        1 MOL      0.129011
     71 H31         1.5890    5.4360   -2.6020 hc        1 MOL      0.129011
     72 N7          1.8540    7.0180   -0.1570 n         1 MOL     -0.477134
     73 C23         0.4480    7.1530   -0.5810 c3        1 MOL      0.088265
     74 C24        -0.5850    6.4790    0.3850 c         1 MOL      0.467907
     75 O13        -0.4930    6.7400    1.6180 o         1 MOL     -0.529720
     76 H32         2.2460    7.9180    0.0750 hn        1 MOL      0.325615
     77 H33         0.2410    6.6130   -1.5040 h1        1 MOL      0.033627
     78 H34         0.1280    8.1790   -0.7760 h1        1 MOL      0.033627
     79 N8         -1.4660    5.5860   -0.1020 n         1 MOL     -0.433750
     80 C25        -2.4320    4.7170    0.6780 c3        1 MOL     -0.105403
     81 C26        -1.7160    3.3570    0.9170 c         1 MOL      0.690242
     82 O14        -1.4380    2.5410    0.0080 o         1 MOL     -0.684219
     83 C27        -3.9160    4.5400    0.0320 c3        1 MOL      0.634335
     84 C28        -4.6100    5.8800   -0.2290 c3        1 MOL     -0.402998
     85 O15        -4.6850    3.7220    0.8880 oh        1 MOL     -0.650442
     86 H35        -1.3880    5.3920   -1.0890 hn        1 MOL      0.296380
     87 H36        -2.5970    5.1600    1.6630 h1        1 MOL      0.090805
     88 H37        -3.7460    4.0030   -0.9040 h1        1 MOL     -0.074960
     89 H38        -4.8480    2.9490    0.3370 ho        1 MOL      0.334996
     90 H39        -4.0580    6.3420   -1.0470 hc        1 MOL      0.097171
     91 H40        -5.6840    5.7380   -0.3420 hc        1 MOL      0.097171
     92 H41        -4.5510    6.5690    0.6230 hc        1 MOL      0.097171
     93 N9         -1.5230    3.1030    2.1890 n         1 MOL     -0.580957
     94 C29        -0.9950    1.9430    2.9160 c3        1 MOL      0.034772
     95 C30        -1.3700    0.5840    2.2790 c         1 MOL      0.795510
     96 O16        -0.7260    0.1090    1.3540 o         1 MOL     -0.621040
     97 C31         0.5200    2.1210    3.1670 c3        1 MOL      0.095348
     98 C32         0.9390    3.5020    3.5420 c3        1 MOL      0.234002
     99 C33         0.9520    0.9650    4.1710 c3        1 MOL     -0.424983
    100 C34         2.3820    3.8320    3.6620 c3        1 MOL     -0.370024
    101 H42        -1.8110    3.9160    2.6960 hn        1 MOL      0.286964
    102 H43        -1.3860    1.8940    3.9330 h1        1 MOL      0.023620
    103 H44         0.9790    1.9370    2.1980 hc        1 MOL      0.058913
    104 H45         0.5590    3.7580    4.5280 hc        1 MOL     -0.030575
    105 H46         0.4810    4.2150    2.8500 hc        1 MOL     -0.030575
    106 H47         0.4610    0.0240    3.9420 hc        1 MOL      0.102406
    107 H48         2.0260    0.8210    4.0580 hc        1 MOL      0.102406
    108 H49         0.6380    1.1160    5.2090 hc        1 MOL      0.102406
    109 H50         2.7640    3.1910    4.4570 hc        1 MOL      0.084458
    110 H51         2.8780    3.6560    2.7190 hc        1 MOL      0.084458
    111 H52         2.3920    4.8830    3.9790 hc        1 MOL      0.084458
    112 N10        -2.3780   -0.1050    2.8200 n         1 MOL     -0.760630
    113 C35        -2.7900   -1.3980    2.3790 c3        1 MOL      0.227783
    114 C36        -4.2970   -1.6610    2.1750 c         1 MOL      0.502557
    115 O17        -4.6250   -2.7660    1.6760 o         1 MOL     -0.614647
    116 C37        -2.2350   -2.4840    3.2170 c3        1 MOL      0.536923
    117 C38        -2.6680   -2.4560    4.6380 c3        1 MOL     -0.175818
    118 O18        -0.8190   -2.7110    3.1410 oh        1 MOL     -0.678916
    119 H53        -2.8120    0.3640    3.5970 hn        1 MOL      0.343700
    120 H54        -2.3050   -1.5330    1.4220 h1        1 MOL      0.052436
    121 H55        -2.6070   -3.4130    2.7960 h1        1 MOL     -0.058982
    122 H56        -0.6000   -2.8850    2.2290 ho        1 MOL      0.365368
    123 H57        -2.4740   -1.4690    5.0610 hc        1 MOL      0.015059
    124 H58        -3.7670   -2.4500    4.6370 hc        1 MOL      0.015059
    125 H59        -2.2560   -3.2650    5.2430 hc        1 MOL      0.015059
    126 N11        -5.2090   -0.7820    2.5110 n         1 MOL     -0.256127
    127 C39        -6.5870   -0.9470    2.3040 c3        1 MOL     -0.006467
    128 C40        -6.9120   -1.0620    0.7840 c         1 MOL      0.227894
    129 O19        -6.7070   -0.0750    0.0990 o         1 MOL     -0.415446
    130 C41        -7.2520    0.3470    2.7810 c3        1 MOL      0.402048
    131 C42        -8.7110    0.1640    2.7750 c3        1 MOL     -0.477636
    132 O20        -7.0480    0.7090    4.1340 oh        1 MOL     -0.613040
    133 H60        -4.8540   -0.0000    3.0440 hn        1 MOL      0.174077
    134 H61        -6.9700   -1.7890    2.8720 h1        1 MOL      0.096622
    135 H62        -7.0950    1.2040    2.1240 h1        1 MOL      0.030788
    136 H63        -7.5090    1.5450    4.2420 ho        1 MOL      0.392137
    137 H64        -9.1620    1.1480    2.9380 hc        1 MOL      0.117546
    138 H65        -9.0780   -0.1460    1.7990 hc        1 MOL      0.117546
    139 H66        -8.9940   -0.5980    3.4980 hc        1 MOL      0.117546
    140 N12        -7.3840   -2.1450    0.2500 n         1 MOL     -0.140367
    141 C43        -7.5690   -2.4110   -1.1680 c3        1 MOL      0.026435
    142 C44        -6.2950   -1.9580   -1.9300 c         1 MOL      0.522949
    143 O21        -6.3720   -1.1000   -2.7810 o         1 MOL     -0.500213
    144 C45        -8.8340   -1.7380   -1.7610 c3        1 MOL     -0.280424
    145 C46        -9.9910   -2.5450   -1.0140 c3        1 MOL      0.056916
    146 C47       -11.3070   -1.8600   -1.4300 c3        1 MOL     -0.199770
    147 C48       -12.4370   -2.6190   -0.7230 c3        1 MOL      0.005066
    148 N13       -12.5880   -3.8920   -1.2460 n4        1 MOL     -0.171938
    149 H67        -7.7760   -2.8760    0.8370 hn        1 MOL      0.180514
    150 H68        -7.5920   -3.4810   -1.3970 h1        1 MOL      0.043455
    151 H69        -8.9510   -1.8640   -2.8470 hc        1 MOL      0.131745
    152 H70        -8.9570   -0.6590   -1.6580 hc        1 MOL      0.131745
    153 H71        -9.8610   -2.4140    0.0630 hc        1 MOL      0.014995
    154 H72        -9.9890   -3.6010   -1.2530 hc        1 MOL      0.014995
    155 H73       -11.4840   -1.8130   -2.5030 hc        1 MOL      0.101160
    156 H74       -11.2700   -0.9310   -0.8620 hc        1 MOL      0.101160
    157 H75       -13.3330   -2.0780   -1.0270 hx        1 MOL      0.072135
    158 H76       -12.3000   -2.5600    0.3650 hx        1 MOL      0.072135
    159 H77       -12.7060   -3.8290   -2.2490 hn        1 MOL      0.216487
    160 H78       -11.8090   -4.5010   -1.0610 hn        1 MOL      0.216487
    161 H79       -13.4070   -4.3700   -0.8870 hn        1 MOL      0.216487
    162 N14        -5.1180   -2.4550   -1.5100 n         1 MOL     -0.540070
    163 C49        -3.8990   -1.9480   -2.1810 c3        1 MOL      0.199018
    164 C50        -2.7040   -2.0600   -1.2430 c         1 MOL      0.374769
    165 O22        -2.0490   -1.1410   -0.9240 o         1 MOL     -0.571735
    166 C51        -3.6180   -2.5240   -3.5700 c3        1 MOL     -0.090416
    167 C52        -2.2290   -2.3460   -4.1580 c3        1 MOL     -0.216473
    168 C53        -1.9100   -0.8870   -4.2780 c         1 MOL      0.864004
    169 O23        -0.8540   -0.4690   -3.8240 o         1 MOL     -0.718967
    170 O24        -2.8330   -0.1230   -4.7260 o         1 MOL     -0.718967
    171 H80        -5.0870   -3.0000   -0.6620 hn        1 MOL      0.304684
    172 H81        -3.9330   -0.8610   -2.3170 h1        1 MOL      0.057086
    173 H82        -4.3380   -2.1760   -4.3040 hc        1 MOL      0.032034
    174 H83        -3.8450   -3.5960   -3.5520 hc        1 MOL      0.032034
    175 H84        -2.2600   -2.6070   -5.2100 hc        1 MOL      0.053273
    176 H85        -1.5310   -2.9340   -3.5710 hc        1 MOL      0.053273
    177 N15        -2.1300   -3.1890   -0.7800 n         1 MOL     -0.099717
    178 C54        -2.2730   -4.5440   -1.1630 c3        1 MOL     -0.277936
    179 H86        -3.0860   -4.9980   -0.5950 h1        1 MOL      0.081841
    180 H87        -2.5000   -4.6000   -2.2280 h1        1 MOL      0.081841
    181 H88        -1.3470   -5.0800   -0.9600 h1        1 MOL      0.081841
    182 H89        -1.3670   -2.9410   -0.1550 hn        1 MOL      0.242890
    183 Ca1        -0.2710    0.5960   -1.2930 Ca        1 MOL      1.747252
    184 O25         1.9540    0.2470   -2.8600 oh        1 MOL     -0.856772
    185 H90         2.1140    1.0270   -3.3990 ho        1 MOL      0.417024
    186 H91         2.7490    0.1730   -2.3160 ho        1 MOL      0.417024
    187 O26        -2.7420    1.4620   -2.2460 oh        1 MOL     -0.856772
    188 H92        -3.1150    1.2970   -3.1060 ho        1 MOL      0.417024
    189 H93        -3.4990    1.6510   -1.6840 ho        1 MOL      0.417024
@<TRIPOS>BOND
     1    1    2 1   
     2    1    4 1   
     3    1    5 1   
     4    1    6 1   
     5    2    3 2   
     6    2    7 1   
     7    7    8 1   
     8    7   15 1   
     9    8    9 1   
    10    8   11 1   
    11    8   16 1   
    12    9   10 2   
    13    9   19 1   
    14   11   12 1   
    15   11   17 1   
    16   11   18 1   
    17   12   13 1   
    18   12   14 1   
    19   19   20 1   
    20   19   28 1   
    21   20   21 1   
    22   20   23 1   
    23   20   29 1   
    24   21   22 2   
    25   21   41 1   
    26   23   24 1   
    27   23   30 1   
    28   23   31 1   
    29   24   25 1   
    30   24   32 1   
    31   24   33 1   
    32   25   26 1   
    33   25   34 1   
    34   25   35 1   
    35   26   27 1   
    36   26   36 1   
    37   26   37 1   
    38   27   38 1   
    39   27   39 1   
    40   27   40 1   
    41   41   42 1   
    42   41   49 1   
    43   42   43 1   
    44   42   45 1   
    45   42   50 1   
    46   43   44 2   
    47   43   53 1   
    48   45   46 1   
    49   45   51 1   
    50   45   52 1   
    51   46   47 1   
    52   46   48 1   
    53   53   54 1   
    54   53   57 1   
    55   54   55 1   
    56   54   58 1   
    57   54   59 1   
    58   55   56 2   
    59   55   60 1   
    60   60   61 1   
    61   60   68 1   
    62   61   62 1   
    63   61   64 1   
    64   61   69 1   
    65   62   63 2   
    66   62   72 1   
    67   64   65 1   
    68   64   70 1   
    69   64   71 1   
    70   65   66 1   
    71   65   67 1   
    72   72   73 1   
    73   72   76 1   
    74   73   74 1   
    75   73   77 1   
    76   73   78 1   
    77   74   75 2   
    78   74   79 1   
    79   79   80 1   
    80   79   86 1   
    81   80   81 1   
    82   80   83 1   
    83   80   87 1   
    84   81   82 2   
    85   81   93 1   
    86   83   84 1   
    87   83   85 1   
    88   83   88 1   
    89   84   90 1   
    90   84   91 1   
    91   84   92 1   
    92   85   89 1   
    93   93   94 1   
    94   93  101 1   
    95   94   95 1   
    96   94   97 1   
    97   94  102 1   
    98   95   96 2   
    99   95  112 1   
   100   97   98 1   
   101   97   99 1   
   102   97  103 1   
   103   98  100 1   
   104   98  104 1   
   105   98  105 1   
   106   99  106 1   
   107   99  107 1   
   108   99  108 1   
   109  100  109 1   
   110  100  110 1   
   111  100  111 1   
   112  112  113 1   
   113  112  119 1   
   114  113  114 1   
   115  113  116 1   
   116  113  120 1   
   117  114  115 2   
   118  114  126 1   
   119  116  117 1   
   120  116  118 1   
   121  116  121 1   
   122  117  123 1   
   123  117  124 1   
   124  117  125 1   
   125  118  122 1   
   126  126  127 1   
   127  126  133 1   
   128  127  128 1   
   129  127  130 1   
   130  127  134 1   
   131  128  129 2   
   132  128  140 1   
   133  130  131 1   
   134  130  132 1   
   135  130  135 1   
   136  131  137 1   
   137  131  138 1   
   138  131  139 1   
   139  132  136 1   
   140  140  141 1   
   141  140  149 1   
   142  141  142 1   
   143  141  144 1   
   144  141  150 1   
   145  142  143 2   
   146  142  162 1   
   147  144  145 1   
   148  144  151 1   
   149  144  152 1   
   150  145  146 1   
   151  145  153 1   
   152  145  154 1   
   153  146  147 1   
   154  146  155 1   
   155  146  156 1   
   156  147  148 1   
   157  147  157 1   
   158  147  158 1   
   159  148  159 1   
   160  148  160 1   
   161  148  161 1   
   162  162  163 1   
   163  162  171 1   
   164  163  164 1   
   165  163  166 1   
   166  163  172 1   
   167  164  165 2   
   168  164  177 1   
   169  166  167 1   
   170  166  173 1   
   171  166  174 1   
   172  167  168 1   
   173  167  175 1   
   174  167  176 1   
   175  168  169 1   
   176  168  170 1   
   177  177  178 1   
   178  177  182 1   
   179  178  179 1   
   180  178  180 1   
   181  178  181 1   
   182  184  185 1   
   183  184  186 1   
   184  187  188 1   
   185  187  189 1   
@<TRIPOS>SUBSTRUCTURE
     1 MOL         1 TEMP              0 ****  ****    0 ROOT
