@<TRIPOS>MOLECULE
MOL
  184   179     1     0     0
SMALL
resp


@<TRIPOS>ATOM
      1 C1          3.7490   -1.7490    4.2820 c3        1 MOL     -0.363291
      2 C2          4.7860   -0.6850    3.8890 c         1 MOL      0.640832
      3 O1          4.5530    0.4670    3.5540 o         1 MOL     -0.561851
      4 H1          2.7810   -1.4890    3.8530 hc        1 MOL      0.090573
      5 H2          4.0650   -2.7220    3.9040 hc        1 MOL      0.090573
      6 H3          3.6630   -1.7910    5.3680 hc        1 MOL      0.090573
      7 N1          6.0570   -1.0850    3.7860 n         1 MOL     -0.581985
      8 C3          7.1080   -0.2880    3.1520 c3        1 MOL      0.299611
      9 C4          7.0490   -0.5260    1.6630 c         1 MOL      0.435456
     10 O2          6.6080   -1.5780    1.1410 o         1 MOL     -0.513767
     11 C5          8.4170   -0.6790    3.7190 c3        1 MOL     -0.133506
     12 C6          9.6300    0.2300    3.2850 c         1 MOL      0.698080
     13 O3         10.7350   -0.3010    3.4660 o         1 MOL     -0.706119
     14 O4          9.3830    1.3820    2.7830 o         1 MOL     -0.706119
     15 H4          6.2030   -2.0650    3.9680 hn        1 MOL      0.259570
     16 H5          6.8970    0.7480    3.4000 h1        1 MOL      0.037306
     17 H6          8.6040   -1.6960    3.3940 hc        1 MOL     -0.003707
     18 H7          8.3360   -0.5900    4.8010 hc        1 MOL     -0.003707
     19 N2          7.6090    0.4280    0.8640 n         1 MOL     -0.454103
     20 C7          7.6670    0.4460   -0.5550 c3        1 MOL      0.387457
     21 C8          6.3470    0.5260   -1.2060 c         1 MOL      0.456058
     22 O5          5.3340    0.9000   -0.6570 o         1 MOL     -0.535210
     23 C9          8.5810    1.6140   -0.9030 c3        1 MOL     -0.312890
     24 H8          8.1280    1.1820    1.2800 hn        1 MOL      0.219926
     25 H9          8.1810   -0.4480   -0.8940 h1        1 MOL      0.024941
     26 H10         9.4330    1.4480   -0.2520 hc        1 MOL      0.073787
     27 H11         8.9350    1.5920   -1.9420 hc        1 MOL      0.073787
     28 H12         8.1740    2.6170   -0.8300 hc        1 MOL      0.073787
     29 N3          6.2470    0.1530   -2.4870 n         1 MOL     -0.742621
     30 C10         4.9650   -0.0190   -3.1020 c3        1 MOL      0.584362
     31 C11         4.5460    1.1490   -4.0740 c         1 MOL      0.313517
     32 O6          4.0340    0.8790   -5.1790 o         1 MOL     -0.473775
     33 C12         4.8020   -1.3640   -3.7900 c3        1 MOL     -0.265499
     34 C13         5.2640   -2.5370   -2.8570 c         1 MOL      0.812978
     35 O7          6.4710   -2.8680   -3.0000 o         1 MOL     -0.750109
     36 O8          4.4210   -3.1210   -2.1890 o         1 MOL     -0.750109
     37 H13         7.0830   -0.1700   -2.9540 hn        1 MOL      0.323392
     38 H14         4.1170   -0.0800   -2.4210 h1        1 MOL     -0.104603
     39 H15         5.3340   -1.4400   -4.7410 hc        1 MOL      0.018766
     40 H16         3.7530   -1.6250   -3.9340 hc        1 MOL      0.018766
     41 N4          4.6840    2.4200   -3.6880 n         1 MOL     -0.337976
     42 C14         4.1740    3.5250   -4.4640 c3        1 MOL     -0.194994
     43 C15         2.7020    3.8020   -4.3810 c         1 MOL      0.583018
     44 O9          2.1460    4.2620   -5.3260 o         1 MOL     -0.588274
     45 H17         5.0670    2.6320   -2.7850 hn        1 MOL      0.301121
     46 H18         4.4090    3.3610   -5.5120 h1        1 MOL      0.096389
     47 H19         4.5670    4.4600   -4.0570 h1        1 MOL      0.096389
     48 N5          2.0140    3.3930   -3.3070 n         1 MOL     -0.114749
     49 C16         0.5710    3.5160   -3.0770 c3        1 MOL     -0.129326
     50 C17         0.3380    4.8170   -2.2780 c         1 MOL      0.296360
     51 O10         0.9580    4.9750   -1.2020 o         1 MOL     -0.471246
     52 C18         0.0450    2.2860   -2.2750 c3        1 MOL     -0.167017
     53 C19         0.4210    0.9500   -2.9860 c         1 MOL      0.480349
     54 N6          1.1530    0.0670   -2.3400 n         1 MOL     -0.554207
     55 O11         0.0730    0.6640   -4.1390 o         1 MOL     -0.555694
     56 H20         2.5880    3.0670   -2.5440 hn        1 MOL      0.174650
     57 H21         0.0270    3.6030   -4.0180 h1        1 MOL      0.112681
     58 H22        -1.0210    2.4610   -2.1330 hc        1 MOL      0.093207
     59 H23         0.3560    2.2540   -1.2320 hc        1 MOL      0.093207
     60 H24         1.3210    0.2280   -1.3590 hn        1 MOL      0.318877
     61 H25         1.2450   -0.8730   -2.7010 hn        1 MOL      0.318877
     62 N7         -0.6090    5.6830   -2.6750 n         1 MOL     -0.161652
     63 C20        -1.0250    6.8890   -1.9180 c3        1 MOL     -0.371725
     64 C21        -2.2370    6.5390   -0.9630 c         1 MOL      0.664781
     65 O12        -3.1760    5.8010   -1.3340 o         1 MOL     -0.529326
     66 H26        -1.1450    5.5430   -3.5280 hn        1 MOL      0.246951
     67 H27        -1.4140    7.6660   -2.5760 h1        1 MOL      0.146866
     68 H28        -0.1480    7.1630   -1.3300 h1        1 MOL      0.146866
     69 N8         -2.2950    7.0800    0.2340 n         1 MOL     -0.417726
     70 C22        -3.4690    7.1720    1.1230 c3        1 MOL     -0.300259
     71 C23        -3.8950    5.8000    1.6620 c         1 MOL      0.471078
     72 O13        -5.1260    5.6190    1.7510 o         1 MOL     -0.565817
     73 C24        -3.1690    8.1650    2.2530 c3        1 MOL      0.408519
     74 C25        -2.1540    7.7510    3.3610 c3        1 MOL     -0.176908
     75 O14        -2.6720    9.4380    1.7520 oh        1 MOL     -0.627734
     76 H29        -1.4330    7.4920    0.5710 hn        1 MOL      0.260585
     77 H30        -4.3220    7.5900    0.5770 h1        1 MOL      0.197678
     78 H31        -4.0440    8.4370    2.8380 h1        1 MOL      0.039185
     79 H32        -1.7100    9.3790    1.7120 ho        1 MOL      0.371796
     80 H33        -1.3290    7.2140    2.8970 hc        1 MOL      0.035889
     81 H34        -1.7810    8.6280    3.8960 hc        1 MOL      0.035889
     82 H35        -2.6700    7.0540    4.0100 hc        1 MOL      0.035889
     83 N9         -3.0050    4.8240    1.8590 n         1 MOL     -0.085976
     84 C26        -3.3200    3.3910    2.1710 c3        1 MOL     -0.128409
     85 C27        -2.3430    2.5080    1.3780 c         1 MOL      0.433495
     86 O15        -1.3640    2.9860    0.7910 o         1 MOL     -0.427340
     87 C28        -3.0830    3.2210    3.6960 c3        1 MOL     -0.007505
     88 C29        -1.8090    3.7560    4.2550 c3        1 MOL      0.262027
     89 C30        -4.2490    3.8230    4.4610 c3        1 MOL     -0.153890
     90 C31        -1.2920    3.1810    5.5510 c3        1 MOL     -0.545602
     91 H36        -2.0730    5.1710    1.6920 hn        1 MOL      0.151885
     92 H37        -4.3340    3.1140    1.8870 h1        1 MOL      0.136887
     93 H38        -2.9740    2.1400    3.8200 hc        1 MOL     -0.004340
     94 H39        -1.7470    4.8470    4.3070 hc        1 MOL      0.002586
     95 H40        -0.9550    3.6080    3.5830 hc        1 MOL      0.002586
     96 H41        -5.2710    3.5110    4.2320 hc        1 MOL      0.033072
     97 H42        -3.9900    3.6640    5.5110 hc        1 MOL      0.033072
     98 H43        -4.2520    4.9070    4.3470 hc        1 MOL      0.033072
     99 H44        -1.5680    2.1350    5.6640 hc        1 MOL      0.133932
    100 H45        -0.2090    3.1320    5.4420 hc        1 MOL      0.133932
    101 H46        -1.6170    3.9110    6.2960 hc        1 MOL      0.133932
    102 N10        -2.6040    1.2160    1.3620 n         1 MOL     -0.406648
    103 C32        -1.9970    0.2180    0.5470 c3        1 MOL      0.035327
    104 C33        -2.9880   -0.6580   -0.2610 c         1 MOL      0.493282
    105 O16        -2.7230   -1.6930   -0.7860 o         1 MOL     -0.442654
    106 C34        -1.0020   -0.6190    1.4050 c3        1 MOL     -0.027919
    107 C35         0.2780   -1.0460    0.6600 c         1 MOL      0.649822
    108 O17         1.0890   -0.0940    0.3870 o         1 MOL     -0.658686
    109 O18         0.4770   -2.2630    0.4900 o         1 MOL     -0.658686
    110 H47        -3.3170    0.8350    1.9640 hn        1 MOL      0.280032
    111 H48        -1.3010    0.6900   -0.1540 h1        1 MOL      0.056918
    112 H49        -1.5310   -1.4140    1.9170 hc        1 MOL      0.031006
    113 H50        -0.5860    0.0500    2.1530 hc        1 MOL      0.031006
    114 N11        -4.2790   -0.2900   -0.2080 n         1 MOL     -0.359621
    115 C36        -5.3940   -0.9070   -0.8590 c3        1 MOL      0.030149
    116 C37        -5.8150   -2.1220    0.0660 c         1 MOL      0.283761
    117 O19        -5.9410   -1.9330    1.2970 o         1 MOL     -0.499634
    118 C38        -6.4230    0.1910   -1.0770 c3        1 MOL     -0.103645
    119 C39        -7.5770   -0.3510   -1.9020 ca        1 MOL      0.065284
    120 C40        -7.5270   -0.3260   -3.3430 ca        1 MOL     -0.219360
    121 C41        -8.6840   -0.9300   -1.1740 ca        1 MOL     -0.219360
    122 C42        -8.5940   -0.7810   -4.0720 ca        1 MOL     -0.026016
    123 C43        -9.6890   -1.4750   -1.9740 ca        1 MOL     -0.026016
    124 C44        -9.6600   -1.4070   -3.4020 ca        1 MOL     -0.212560
    125 H51        -4.4480    0.4920    0.4060 hn        1 MOL      0.196047
    126 H52        -5.0700   -1.1770   -1.8600 h1        1 MOL      0.085639
    127 H53        -5.9330    1.0740   -1.4910 hc        1 MOL      0.083569
    128 H54        -6.8240    0.6690   -0.1880 hc        1 MOL      0.083569
    129 H55        -6.6660    0.0660   -3.8600 ha        1 MOL      0.151357
    130 H56        -8.7370   -0.9300   -0.0910 ha        1 MOL      0.151357
    131 H57        -8.5160   -0.6400   -5.1390 ha        1 MOL      0.092995
    132 H58       -10.5490   -1.9230   -1.5030 ha        1 MOL      0.092995
    133 H59       -10.3960   -1.9140   -3.9990 ha        1 MOL      0.118415
    134 N12        -6.0370   -3.3330   -0.5030 n         1 MOL     -0.026832
    135 C45        -6.4380   -4.4900    0.2950 c3        1 MOL      0.071823
    136 C46        -5.4050   -4.7350    1.3920 c         1 MOL      0.426974
    137 O20        -5.7030   -5.1710    2.4730 o         1 MOL     -0.562134
    138 C47        -6.5820   -5.6580   -0.6210 c3        1 MOL     -0.086151
    139 C48        -6.0240   -5.1870   -1.9640 c3        1 MOL     -0.099586
    140 C49        -5.9730   -3.7000   -1.9230 c3        1 MOL     -0.026850
    141 H60        -7.4190   -4.2960    0.7230 h1        1 MOL      0.041692
    142 H61        -6.0810   -6.5520   -0.2670 hc        1 MOL      0.049320
    143 H62        -7.6270   -5.9320   -0.7610 hc        1 MOL      0.049320
    144 H63        -5.0330   -5.5450   -2.2700 hc        1 MOL      0.046933
    145 H64        -6.7160   -5.5360   -2.7130 hc        1 MOL      0.046933
    146 H65        -5.1080   -3.3190   -2.4590 h1        1 MOL      0.069204
    147 H66        -6.8430   -3.2340   -2.3740 h1        1 MOL      0.069204
    148 N13        -4.1570   -4.3410    1.1600 n         1 MOL     -0.211321
    149 C50        -3.0300   -4.8120    1.9020 c3        1 MOL     -0.135271
    150 C51        -2.7730   -4.1540    3.2590 c         1 MOL      0.368875
    151 O21        -1.7970   -4.5830    3.9220 o         1 MOL     -0.511599
    152 C52        -1.7690   -4.6550    0.9640 c3        1 MOL      0.010780
    153 C53        -1.8710   -5.1860   -0.4910 c3        1 MOL     -0.090588
    154 C54        -0.5560   -5.0580   -1.3040 c         1 MOL      0.614395
    155 O22         0.4880   -5.4290   -0.7030 o         1 MOL     -0.685878
    156 O23        -0.5220   -4.4600   -2.3940 o         1 MOL     -0.685878
    157 H67        -3.9830   -3.8260    0.3020 hn        1 MOL      0.149040
    158 H68        -3.1000   -5.8840    2.0910 h1        1 MOL      0.139954
    159 H69        -0.8910   -5.1650    1.3530 hc        1 MOL      0.038545
    160 H70        -1.6290   -3.5850    0.8380 hc        1 MOL      0.038545
    161 H71        -2.6140   -4.5800   -1.0200 hc        1 MOL      0.016150
    162 H72        -2.0690   -6.2560   -0.3860 hc        1 MOL      0.016150
    163 N14        -3.6840   -3.2300    3.7390 n         1 MOL     -0.125444
    164 C55        -3.6120   -2.6480    5.0370 c3        1 MOL     -0.181219
    165 H73        -4.5680   -2.7760    5.5440 h1        1 MOL      0.076232
    166 H74        -2.8270   -3.1390    5.6130 h1        1 MOL      0.076232
    167 H75        -3.3880   -1.5860    4.9480 h1        1 MOL      0.076232
    168 H76        -4.2280   -2.8330    2.9810 hn        1 MOL      0.219820
    169 Ca1         2.5440   -3.7350   -0.3990 Ca        1 MOL      1.680456
    170 O24         1.6410   -2.9810   -2.7570 oh        1 MOL     -0.826425
    171 H77         0.8230   -3.4630   -2.8150 ho        1 MOL      0.405533
    172 H78         1.9840   -2.9850   -3.6510 ho        1 MOL      0.405533
    173 O25         3.6100   -1.5500    0.5000 oh        1 MOL     -0.826425
    174 H79         4.4060   -1.0280    0.5930 ho        1 MOL      0.405533
    175 H80         2.9110   -0.9030    0.4280 ho        1 MOL      0.405533
    176 O26         2.1870   -4.9940    1.8450 oh        1 MOL     -0.826425
    177 H81         1.8150   -4.8010    2.7080 ho        1 MOL      0.405533
    178 H82         2.7220   -5.7850    1.9910 ho        1 MOL      0.405533
    179 O27         3.1250   -6.1230   -1.1400 oh        1 MOL     -0.826425
    180 H83         3.6780   -6.6670   -1.7090 ho        1 MOL      0.405533
    181 H84         2.2480   -6.4870   -1.2330 ho        1 MOL      0.405533
    182 O28         4.8200   -4.3360    0.8410 oh        1 MOL     -0.826425
    183 H85         5.4820   -3.6610    0.7010 ho        1 MOL      0.405533
    184 H86         5.0050   -4.6760    1.7050 ho        1 MOL      0.405533
@<TRIPOS>BOND
     1    1    2 1   
     2    1    4 1   
     3    1    5 1   
     4    1    6 1   
     5    2    3 2   
     6    2    7 1   
     7    7    8 1   
     8    7   15 1   
     9    8    9 1   
    10    8   11 1   
    11    8   16 1   
    12    9   10 2   
    13    9   19 1   
    14   11   12 1   
    15   11   17 1   
    16   11   18 1   
    17   12   13 1   
    18   12   14 1   
    19   19   20 1   
    20   19   24 1   
    21   20   21 1   
    22   20   23 1   
    23   20   25 1   
    24   21   22 2   
    25   21   29 1   
    26   23   26 1   
    27   23   27 1   
    28   23   28 1   
    29   29   30 1   
    30   29   37 1   
    31   30   31 1   
    32   30   33 1   
    33   30   38 1   
    34   31   32 2   
    35   31   41 1   
    36   33   34 1   
    37   33   39 1   
    38   33   40 1   
    39   34   35 1   
    40   34   36 1   
    41   41   42 1   
    42   41   45 1   
    43   42   43 1   
    44   42   46 1   
    45   42   47 1   
    46   43   44 2   
    47   43   48 1   
    48   48   49 1   
    49   48   56 1   
    50   49   50 1   
    51   49   52 1   
    52   49   57 1   
    53   50   51 2   
    54   50   62 1   
    55   52   53 1   
    56   52   58 1   
    57   52   59 1   
    58   53   54 1   
    59   53   55 2   
    60   54   60 1   
    61   54   61 1   
    62   62   63 1   
    63   62   66 1   
    64   63   64 1   
    65   63   67 1   
    66   63   68 1   
    67   64   65 2   
    68   64   69 1   
    69   69   70 1   
    70   69   76 1   
    71   70   71 1   
    72   70   73 1   
    73   70   77 1   
    74   71   72 2   
    75   71   83 1   
    76   73   74 1   
    77   73   75 1   
    78   73   78 1   
    79   74   80 1   
    80   74   81 1   
    81   74   82 1   
    82   75   79 1   
    83   83   84 1   
    84   83   91 1   
    85   84   85 1   
    86   84   87 1   
    87   84   92 1   
    88   85   86 2   
    89   85  102 1   
    90   87   88 1   
    91   87   89 1   
    92   87   93 1   
    93   88   90 1   
    94   88   94 1   
    95   88   95 1   
    96   89   96 1   
    97   89   97 1   
    98   89   98 1   
    99   90   99 1   
   100   90  100 1   
   101   90  101 1   
   102  102  103 1   
   103  102  110 1   
   104  103  104 1   
   105  103  106 1   
   106  103  111 1   
   107  104  105 2   
   108  104  114 1   
   109  106  107 1   
   110  106  112 1   
   111  106  113 1   
   112  107  108 1   
   113  107  109 1   
   114  114  115 1   
   115  114  125 1   
   116  115  116 1   
   117  115  118 1   
   118  115  126 1   
   119  116  117 2   
   120  116  134 1   
   121  118  119 1   
   122  118  127 1   
   123  118  128 1   
   124  119  120 ar  
   125  119  121 ar  
   126  120  122 ar  
   127  120  129 1   
   128  121  123 ar  
   129  121  130 1   
   130  122  124 ar  
   131  122  131 1   
   132  123  124 ar  
   133  123  132 1   
   134  124  133 1   
   135  134  135 1   
   136  134  140 1   
   137  135  136 1   
   138  135  138 1   
   139  135  141 1   
   140  136  137 2   
   141  136  148 1   
   142  138  139 1   
   143  138  142 1   
   144  138  143 1   
   145  139  140 1   
   146  139  144 1   
   147  139  145 1   
   148  140  146 1   
   149  140  147 1   
   150  148  149 1   
   151  148  157 1   
   152  149  150 1   
   153  149  152 1   
   154  149  158 1   
   155  150  151 2   
   156  150  163 1   
   157  152  153 1   
   158  152  159 1   
   159  152  160 1   
   160  153  154 1   
   161  153  161 1   
   162  153  162 1   
   163  154  155 1   
   164  154  156 1   
   165  163  164 1   
   166  163  168 1   
   167  164  165 1   
   168  164  166 1   
   169  164  167 1   
   170  170  171 1   
   171  170  172 1   
   172  173  174 1   
   173  173  175 1   
   174  176  177 1   
   175  176  178 1   
   176  179  180 1   
   177  179  181 1   
   178  182  183 1   
   179  182  184 1   
@<TRIPOS>SUBSTRUCTURE
     1 MOL         1 TEMP              0 ****  ****    0 ROOT
