@<TRIPOS>MOLECULE
MOL
  186   183     1     0     0
SMALL
resp


@<TRIPOS>ATOM
      1 C1          4.0600    4.4260   -3.1450 c3        1 MOL     -0.350034
      2 C2          4.8220    3.4760   -2.1320 c         1 MOL      0.597868
      3 O1          4.1260    2.8690   -1.2620 o         1 MOL     -0.545784
      4 H1          3.0650    4.0250   -3.3380 hc        1 MOL      0.092445
      5 H2          3.9730    5.4230   -2.7120 hc        1 MOL      0.092445
      6 H3          4.6160    4.4820   -4.0800 hc        1 MOL      0.092445
      7 N1          6.1410    3.2980   -2.2930 n         1 MOL     -0.590755
      8 C3          6.9730    2.1530   -1.8600 c3        1 MOL      0.254948
      9 C4          6.1990    0.8840   -1.5870 c         1 MOL      0.268140
     10 O2          5.9950    0.4890   -0.4710 o         1 MOL     -0.349589
     11 C5          7.9410    2.5660   -0.7350 c3        1 MOL     -0.059157
     12 C6          7.3230    3.2950    0.5020 c         1 MOL      0.617974
     13 O3          6.0960    3.3540    0.7280 o         1 MOL     -0.680213
     14 O4          8.0550    3.8790    1.3210 o         1 MOL     -0.680213
     15 H4          6.4880    3.8020   -3.0900 hn        1 MOL      0.304899
     16 H5          7.6780    1.9030   -2.6450 h1        1 MOL     -0.007037
     17 H6          8.7080    3.2360   -1.1130 hc        1 MOL      0.006197
     18 H7          8.4760    1.6510   -0.4970 hc        1 MOL      0.006197
     19 N2          5.6850    0.3130   -2.6400 n         1 MOL     -0.335038
     20 C7          5.0680   -1.0780   -2.8610 c3        1 MOL     -0.011044
     21 C8          5.8220   -2.3010   -2.2380 c         1 MOL      0.412451
     22 O5          6.2080   -3.1930   -3.0220 o         1 MOL     -0.555821
     23 C9          3.5690   -0.9200   -2.5500 c3        1 MOL      0.086580
     24 C10         2.8180   -2.2830   -2.7790 c3        1 MOL      0.432343
     25 C11         2.8650    0.1930   -3.2650 c3        1 MOL     -0.515662
     26 C12         2.5390   -2.5780   -4.2890 c3        1 MOL     -0.189579
     27 H8          5.7870    0.8470   -3.4820 hn        1 MOL      0.223606
     28 H9          5.1600   -1.2330   -3.9380 h1        1 MOL      0.053230
     29 H10         3.5550   -0.6450   -1.4890 hc        1 MOL      0.025052
     30 H11         1.8670   -2.3400   -2.2520 hc        1 MOL     -0.123228
     31 H12         3.3600   -3.1380   -2.3540 hc        1 MOL     -0.123228
     32 H13         3.0370    0.1350   -4.3430 hc        1 MOL      0.126779
     33 H14         1.7830    0.1560   -3.1790 hc        1 MOL      0.126779
     34 H15         3.0680    1.1510   -2.7790 hc        1 MOL      0.126779
     35 H16         1.9030   -1.8110   -4.7380 hc        1 MOL      0.015910
     36 H17         3.4770   -2.6150   -4.8320 hc        1 MOL      0.015910
     37 H18         1.9860   -3.5130   -4.3660 hc        1 MOL      0.015910
     38 N3          5.9590   -2.4160   -0.8960 n         1 MOL     -0.116159
     39 C13         6.9480   -3.3340   -0.2600 c3        1 MOL     -0.077573
     40 C14         6.3730   -4.7690    0.0060 c         1 MOL      0.667378
     41 O6          7.1390   -5.7260   -0.1910 o         1 MOL     -0.600273
     42 C15         7.5770   -2.6470    1.0320 c3        1 MOL     -0.156199
     43 C16         8.4920   -1.5070    0.6500 c         1 MOL      0.667527
     44 O7          9.2810   -1.5770   -0.3810 o         1 MOL     -0.689692
     45 O8          8.4970   -0.5480    1.4450 o         1 MOL     -0.689692
     46 H19         5.5860   -1.6330   -0.3620 hn        1 MOL      0.275817
     47 H20         7.7770   -3.4690   -0.9710 h1        1 MOL      0.069288
     48 H21         8.1600   -3.3410    1.6260 hc        1 MOL      0.052723
     49 H22         6.7880   -2.2870    1.6910 hc        1 MOL      0.052723
     50 N4          5.1320   -5.0320    0.4390 n         1 MOL     -0.668795
     51 C17         4.1890   -4.0880    1.0420 c3        1 MOL      0.286100
     52 C18         4.5630   -3.6180    2.5230 c         1 MOL      0.421656
     53 O9          5.4740   -4.2540    3.0720 o         1 MOL     -0.541905
     54 H23         4.9000   -6.0050    0.5540 hn        1 MOL      0.329380
     55 H24         3.2180   -4.5540    1.1930 h1        1 MOL     -0.009189
     56 H25         3.9940   -3.1590    0.4930 h1        1 MOL     -0.009189
     57 N5          3.8660   -2.6480    3.0670 n         1 MOL     -0.324977
     58 C19         2.4970   -2.0890    2.7000 c3        1 MOL     -0.078220
     59 C20         2.5380   -1.3160    1.3870 c         1 MOL      0.006314
     60 O10         3.6030   -0.8580    0.9620 o         1 MOL     -0.586779
     61 C21         1.9800   -1.1770    3.8190 c3        1 MOL     -0.294448
     62 C22         2.9560   -0.0090    4.0870 c         1 MOL      0.808359
     63 O11         3.1180    0.8370    3.2090 o         1 MOL     -0.702202
     64 O12         3.4780    0.1350    5.1970 o         1 MOL     -0.702202
     65 H26         4.2560   -2.2820    3.9300 hn        1 MOL      0.273102
     66 H27         1.7700   -2.9020    2.6310 h1        1 MOL      0.124809
     67 H28         1.6840   -1.6670    4.7410 hc        1 MOL      0.093546
     68 H29         1.0360   -0.7610    3.4580 hc        1 MOL      0.093546
     69 N6          1.4350   -1.0540    0.6900 n         1 MOL      0.294928
     70 C23        -0.0210   -1.3610    0.9840 c3        1 MOL     -0.396081
     71 C24        -0.4060   -2.8340    0.5480 c         1 MOL      0.664274
     72 O13         0.3030   -3.5800   -0.0840 o         1 MOL     -0.509598
     73 H30         1.6100   -0.3120    0.0300 hn        1 MOL     -0.006072
     74 H31        -0.6420   -0.6520    0.4280 h1        1 MOL      0.169101
     75 H32        -0.3460   -1.0620    1.9810 h1        1 MOL      0.169101
     76 N7         -1.6610   -3.1960    0.8540 n         1 MOL     -0.626223
     77 C25        -2.3260   -4.3430    0.2540 c3        1 MOL      0.281944
     78 C26        -3.1920   -4.0360   -1.0720 c         1 MOL      0.289605
     79 O14        -3.6130   -5.0050   -1.6820 o         1 MOL     -0.510371
     80 C27        -3.1590   -5.1030    1.2880 c3        1 MOL     -0.017898
     81 C28        -4.3640   -4.4230    2.0320 c3        1 MOL     -0.464764
     82 C29        -5.5410   -3.9820    1.1390 c         1 MOL      0.882868
     83 N8         -6.5070   -4.8480    0.8930 n         1 MOL     -0.977789
     84 O15        -5.5150   -2.9120    0.6240 o         1 MOL     -0.648989
     85 H33        -2.1590   -2.3980    1.2090 hn        1 MOL      0.317982
     86 H34        -1.5900   -5.0570   -0.1000 h1        1 MOL      0.054444
     87 H35        -2.4630   -5.3870    2.0720 hc        1 MOL      0.018575
     88 H36        -3.5240   -6.0200    0.8230 hc        1 MOL      0.018575
     89 H37        -3.9100   -3.5160    2.4220 hc        1 MOL      0.144639
     90 H38        -4.7630   -5.1170    2.7730 hc        1 MOL      0.144639
     91 H39        -6.3630   -5.8340    1.0690 hn        1 MOL      0.413583
     92 H40        -7.1340   -4.5820    0.1420 hn        1 MOL      0.413583
     93 N9         -3.2470   -2.7760   -1.5170 n         1 MOL     -0.049807
     94 C30        -3.7030   -2.4500   -2.8940 c3        1 MOL     -0.099958
     95 C31        -5.1390   -1.8590   -3.1560 c         1 MOL      0.337588
     96 O16        -5.5530   -1.6730   -4.3440 o         1 MOL     -0.538760
     97 C32        -2.5910   -1.5970   -3.5950 c3        1 MOL      0.109303
     98 C33        -1.1960   -2.2810   -3.5400 c3        1 MOL     -0.099131
     99 C34        -2.3460   -0.1870   -2.9520 c3        1 MOL     -0.099131
    100 H41        -2.9860   -2.0840   -0.8370 hn        1 MOL      0.157951
    101 H42        -3.7860   -3.4210   -3.3830 h1        1 MOL      0.104790
    102 H43        -2.8920   -1.4560   -4.6370 hc        1 MOL      0.016170
    103 H44        -0.8130   -2.5880   -2.5690 hc        1 MOL      0.017197
    104 H45        -1.2660   -3.1670   -4.1730 hc        1 MOL      0.017197
    105 H46        -0.4760   -1.6990   -4.1020 hc        1 MOL      0.017197
    106 H47        -1.5990    0.3670   -3.5280 hc        1 MOL      0.017197
    107 H48        -3.2940    0.3330   -3.0720 hc        1 MOL      0.017197
    108 H49        -1.9350   -0.2440   -1.9410 hc        1 MOL      0.017197
    109 N10        -5.8890   -1.5300   -2.0890 n         1 MOL      0.075105
    110 C35        -7.1910   -0.7860   -2.1690 c3        1 MOL     -0.171881
    111 C36        -7.2960    0.5810   -1.5200 c         1 MOL      0.615114
    112 O17        -8.2830    1.2920   -1.6110 o         1 MOL     -0.541646
    113 C37        -8.3630   -1.6990   -1.5830 c3        1 MOL     -0.048821
    114 C38        -8.3730   -3.0360   -2.1000 c         1 MOL      0.524588
    115 N11        -8.4910   -3.2390   -3.3390 n         1 MOL     -0.671947
    116 O18        -8.2240   -3.9680   -1.2970 o         1 MOL     -0.576217
    117 H50        -5.5450   -1.9420   -1.2440 hn        1 MOL      0.129936
    118 H51        -7.3560   -0.6170   -3.2330 h1        1 MOL      0.083586
    119 H52        -9.3360   -1.2660   -1.8050 hc        1 MOL      0.039447
    120 H53        -8.3150   -1.6840   -0.4910 hc        1 MOL      0.039447
    121 H54        -8.6210   -2.4390   -3.9470 hn        1 MOL      0.352314
    122 H55        -8.6160   -4.2080   -3.5820 hn        1 MOL      0.352314
    123 N12        -6.1680    1.1080   -0.8790 n         1 MOL     -0.444687
    124 C39        -6.1400    2.2000    0.0400 c3        1 MOL      0.273572
    125 C40        -4.7370    2.8530    0.3110 c         1 MOL      0.242141
    126 O19        -3.6820    2.1990    0.1490 o         1 MOL     -0.309096
    127 C41        -6.7870    1.7940    1.3770 c3        1 MOL     -0.097047
    128 C42        -6.3750    0.4930    2.1010 ca        1 MOL     -0.114111
    129 C43        -7.3420   -0.5030    2.3040 ca        1 MOL      0.075828
    130 C44        -5.0810    0.3870    2.6340 ca        1 MOL      0.075828
    131 C45        -7.0970   -1.5470    3.1420 ca        1 MOL     -0.354278
    132 C46        -4.8330   -0.7510    3.4510 ca        1 MOL     -0.354278
    133 C47        -5.8810   -1.6670    3.7180 ca        1 MOL      0.341505
    134 O20        -5.5350   -2.7780    4.4340 oh        1 MOL     -0.428417
    135 H56        -5.2310    0.7490   -1.0070 hn        1 MOL      0.126287
    136 H57        -6.7550    3.0170   -0.3290 h1        1 MOL     -0.002705
    137 H58        -7.8690    1.8900    1.2770 hc        1 MOL      0.046063
    138 H59        -6.4890    2.5690    2.0890 hc        1 MOL      0.046063
    139 H60        -8.3530   -0.3830    1.9360 ha        1 MOL      0.045267
    140 H61        -4.4250    1.2280    2.4590 ha        1 MOL      0.045267
    141 H62        -7.8660   -2.3020    3.2140 ha        1 MOL      0.173844
    142 H63        -3.8810   -0.8470    3.9360 ha        1 MOL      0.173844
    143 H64        -6.3480   -3.2900    4.5000 ho        1 MOL      0.287628
    144 N13        -4.7820    4.1020    0.7490 n         1 MOL     -0.330642
    145 C48        -3.6760    4.9650    1.1630 c3        1 MOL      0.008108
    146 C49        -2.5380    5.2280    0.1720 c         1 MOL      0.215886
    147 O21        -2.0580    6.3870    0.0160 o         1 MOL     -0.539948
    148 C50        -3.0560    4.4960    2.4690 c3        1 MOL      0.384762
    149 C51        -4.1750    4.6390    3.5720 c3        1 MOL     -0.305633
    150 C52        -3.6260    4.1240    4.9200 c         1 MOL      0.655399
    151 O22        -3.7510    4.8040    5.9890 o         1 MOL     -0.699870
    152 O23        -2.9940    3.0590    4.9950 o         1 MOL     -0.699870
    153 H65        -5.6810    4.5590    0.7630 hn        1 MOL      0.258001
    154 H66        -4.1860    5.9160    1.3130 h1        1 MOL      0.052572
    155 H67        -2.2320    5.1860    2.6390 hc        1 MOL     -0.018539
    156 H68        -2.5890    3.5160    2.3820 hc        1 MOL     -0.018539
    157 H69        -5.0580    4.0770    3.2840 hc        1 MOL      0.010139
    158 H70        -4.4430    5.6900    3.6480 hc        1 MOL      0.010139
    159 N14        -2.0570    4.2420   -0.5340 n         1 MOL      0.209622
    160 C53        -1.0290    4.4200   -1.5670 c3        1 MOL     -0.537530
    161 C54        -1.4730    5.2830   -2.7580 c         1 MOL      0.680699
    162 O24        -0.6690    5.8040   -3.4800 o         1 MOL     -0.572369
    163 C55        -0.5630    2.9900   -2.0780 c3        1 MOL     -0.018600
    164 C56        -0.3550    1.9030   -1.0020 c3        1 MOL      0.338094
    165 C57         0.7790    2.2540    0.0200 c         1 MOL      0.615398
    166 O25         0.4530    3.0340    0.9070 o         1 MOL     -0.656630
    167 O26         1.9050    1.7610   -0.1270 o         1 MOL     -0.656630
    168 H71        -2.4150    3.3190   -0.3050 hn        1 MOL     -0.001384
    169 H72        -0.1860    4.9170   -1.0760 h1        1 MOL      0.226944
    170 H73         0.3960    3.1130   -2.5930 hc        1 MOL      0.028361
    171 H74        -1.1650    2.6140   -2.9060 hc        1 MOL      0.028361
    172 H75        -0.1050    0.9820   -1.5370 hc        1 MOL     -0.137568
    173 H76        -1.2290    1.7950   -0.3710 hc        1 MOL     -0.137568
    174 N15        -2.7490    5.3930   -2.9590 n         1 MOL     -0.274480
    175 C58        -3.3190    6.2990   -3.9930 c3        1 MOL     -0.235861
    176 H77        -4.3350    5.9840   -4.2310 h1        1 MOL      0.096867
    177 H78        -3.3350    7.3200   -3.6130 h1        1 MOL      0.096867
    178 H79        -2.7050    6.2560   -4.8930 h1        1 MOL      0.096867
    179 H80        -3.4090    4.9760   -2.3140 hn        1 MOL      0.202824
    180 Ca1         4.1620    1.6460    1.0700 Ca        1 MOL      1.768528
    181 O27         3.5270    4.2890    1.2910 oh        1 MOL     -0.941758
    182 H81         2.6830    4.6930    1.4820 ho        1 MOL      0.443837
    183 H82         3.9660    4.9090    0.7100 ho        1 MOL      0.443837
    184 O28         6.0900    0.2590    2.5530 oh        1 MOL     -0.941758
    185 H83         6.0850   -0.1580    3.4110 ho        1 MOL      0.443837
    186 H84         6.8100   -0.1470    2.0810 ho        1 MOL      0.443837
@<TRIPOS>BOND
     1    1    2 1   
     2    1    4 1   
     3    1    5 1   
     4    1    6 1   
     5    2    3 2   
     6    2    7 1   
     7    7    8 1   
     8    7   15 1   
     9    8    9 1   
    10    8   11 1   
    11    8   16 1   
    12    9   10 2   
    13    9   19 1   
    14   11   12 1   
    15   11   17 1   
    16   11   18 1   
    17   12   13 1   
    18   12   14 1   
    19   19   20 1   
    20   19   27 1   
    21   20   21 1   
    22   20   23 1   
    23   20   28 1   
    24   21   22 2   
    25   21   38 1   
    26   23   24 1   
    27   23   25 1   
    28   23   29 1   
    29   24   26 1   
    30   24   30 1   
    31   24   31 1   
    32   25   32 1   
    33   25   33 1   
    34   25   34 1   
    35   26   35 1   
    36   26   36 1   
    37   26   37 1   
    38   38   39 1   
    39   38   46 1   
    40   39   40 1   
    41   39   42 1   
    42   39   47 1   
    43   40   41 2   
    44   40   50 1   
    45   42   43 1   
    46   42   48 1   
    47   42   49 1   
    48   43   44 1   
    49   43   45 1   
    50   50   51 1   
    51   50   54 1   
    52   51   52 1   
    53   51   55 1   
    54   51   56 1   
    55   52   53 2   
    56   52   57 1   
    57   57   58 1   
    58   57   65 1   
    59   58   59 1   
    60   58   61 1   
    61   58   66 1   
    62   59   60 2   
    63   59   69 1   
    64   61   62 1   
    65   61   67 1   
    66   61   68 1   
    67   62   63 1   
    68   62   64 1   
    69   69   70 1   
    70   69   73 1   
    71   70   71 1   
    72   70   74 1   
    73   70   75 1   
    74   71   72 2   
    75   71   76 1   
    76   76   77 1   
    77   76   85 1   
    78   77   78 1   
    79   77   80 1   
    80   77   86 1   
    81   78   79 2   
    82   78   93 1   
    83   80   81 1   
    84   80   87 1   
    85   80   88 1   
    86   81   82 1   
    87   81   89 1   
    88   81   90 1   
    89   82   83 1   
    90   82   84 2   
    91   83   91 1   
    92   83   92 1   
    93   93   94 1   
    94   93  100 1   
    95   94   95 1   
    96   94   97 1   
    97   94  101 1   
    98   95   96 2   
    99   95  109 1   
   100   97   98 1   
   101   97   99 1   
   102   97  102 1   
   103   98  103 1   
   104   98  104 1   
   105   98  105 1   
   106   99  106 1   
   107   99  107 1   
   108   99  108 1   
   109  109  110 1   
   110  109  117 1   
   111  110  111 1   
   112  110  113 1   
   113  110  118 1   
   114  111  112 2   
   115  111  123 1   
   116  113  114 1   
   117  113  119 1   
   118  113  120 1   
   119  114  115 1   
   120  114  116 2   
   121  115  121 1   
   122  115  122 1   
   123  123  124 1   
   124  123  135 1   
   125  124  125 1   
   126  124  127 1   
   127  124  136 1   
   128  125  126 2   
   129  125  144 1   
   130  127  128 1   
   131  127  137 1   
   132  127  138 1   
   133  128  129 ar  
   134  128  130 ar  
   135  129  131 ar  
   136  129  139 1   
   137  130  132 ar  
   138  130  140 1   
   139  131  133 ar  
   140  131  141 1   
   141  132  133 ar  
   142  132  142 1   
   143  133  134 1   
   144  134  143 1   
   145  144  145 1   
   146  144  153 1   
   147  145  146 1   
   148  145  148 1   
   149  145  154 1   
   150  146  147 2   
   151  146  159 1   
   152  148  149 1   
   153  148  155 1   
   154  148  156 1   
   155  149  150 1   
   156  149  157 1   
   157  149  158 1   
   158  150  151 1   
   159  150  152 1   
   160  159  160 1   
   161  159  168 1   
   162  160  161 1   
   163  160  163 1   
   164  160  169 1   
   165  161  162 2   
   166  161  174 1   
   167  163  164 1   
   168  163  170 1   
   169  163  171 1   
   170  164  165 1   
   171  164  172 1   
   172  164  173 1   
   173  165  166 1   
   174  165  167 1   
   175  174  175 1   
   176  174  179 1   
   177  175  176 1   
   178  175  177 1   
   179  175  178 1   
   180  181  182 1   
   181  181  183 1   
   182  184  185 1   
   183  184  186 1   
@<TRIPOS>SUBSTRUCTURE
     1 MOL         1 TEMP              0 ****  ****    0 ROOT
