@<TRIPOS>MOLECULE
MOL
  198   191     1     0     0
SMALL
resp


@<TRIPOS>ATOM
      1 C1          7.6800    7.5010   -5.0310 c3        1 MOL     -0.434235
      2 C2          7.8380    6.7490   -3.7010 c         1 MOL      0.753711
      3 O1          8.8220    6.0770   -3.4650 o         1 MOL     -0.596577
      4 H1          8.2490    6.9890   -5.8070 hc        1 MOL      0.105931
      5 H2          6.6270    7.5280   -5.3100 hc        1 MOL      0.105931
      6 H3          8.0530    8.5190   -4.9200 hc        1 MOL      0.105931
      7 N1          6.9320    6.9880   -2.7590 n         1 MOL     -0.671359
      8 C3          6.9050    6.2690   -1.5070 c3        1 MOL      0.360294
      9 C4          6.2010    4.9020   -1.7800 c         1 MOL      0.509166
     10 O2          5.6680    4.6700   -2.8390 o         1 MOL     -0.568507
     11 C5          6.2070    7.1720   -0.4460 c3        1 MOL     -0.312470
     12 C6          6.3980    6.7880    1.0610 c         1 MOL      0.724489
     13 O3          5.9660    7.5130    1.9720 o         1 MOL     -0.613881
     14 O4          7.1550    5.8350    1.3660 o         1 MOL     -0.613881
     15 H4          6.1270    7.5420   -3.0130 hn        1 MOL      0.315098
     16 H5          7.9200    5.9860   -1.2440 h1        1 MOL      0.019630
     17 H6          5.1400    7.3320   -0.6120 hc        1 MOL      0.064349
     18 H7          6.6910    8.1480   -0.5020 hc        1 MOL      0.064349
     19 N2          6.3450    4.0370   -0.8180 n         1 MOL     -0.428436
     20 C7          5.5600    2.8000   -0.7190 c3        1 MOL      0.064718
     21 C8          4.3480    2.8510    0.1840 c         1 MOL      0.653577
     22 O5          4.4140    3.3960    1.2330 o         1 MOL     -0.558249
     23 C9          6.4610    1.6620   -0.2390 c3        1 MOL     -0.273871
     24 C10         5.7290    0.2830   -0.3340 c3        1 MOL      0.159456
     25 C11         6.6790   -0.9100   -0.0450 c3        1 MOL      0.048182
     26 C12         5.8480   -2.1820    0.0550 c3        1 MOL     -0.533092
     27 N3          5.1520   -2.4680   -1.1730 n4        1 MOL     -0.033529
     28 H8          6.9550    4.2920   -0.0630 hn        1 MOL      0.238396
     29 H9          5.1330    2.4450   -1.6470 h1        1 MOL      0.038300
     30 H10         6.8290    1.8230    0.7750 hc        1 MOL      0.110327
     31 H11         7.4330    1.6590   -0.7420 hc        1 MOL      0.110327
     32 H12         5.4010    0.1940   -1.3670 hc        1 MOL     -0.010254
     33 H13         4.9490    0.2490    0.4290 hc        1 MOL     -0.010254
     34 H14         7.2250   -0.7170    0.8730 hc        1 MOL      0.016294
     35 H15         7.4030   -0.9640   -0.8570 hc        1 MOL      0.016294
     36 H16         5.2290   -1.9250    0.9120 hx        1 MOL      0.251604
     37 H17         6.4970   -3.0170    0.3240 hx        1 MOL      0.251604
     38 H18         4.7350   -1.6340   -1.5520 hn        1 MOL      0.247030
     39 H19         5.7200   -2.7550   -1.9670 hn        1 MOL      0.247030
     40 H20         4.3990   -3.1300   -1.0020 hn        1 MOL      0.247030
     41 N4          3.1640    2.4650   -0.3100 n         1 MOL     -0.475396
     42 C13         1.9430    2.3960    0.3320 c3        1 MOL      0.272928
     43 C14         1.0080    1.3470   -0.2830 c         1 MOL      0.283390
     44 O6          0.9490    1.2170   -1.4720 o         1 MOL     -0.486291
     45 C15         1.2360    3.7660    0.2670 c3        1 MOL     -0.201961
     46 C16        -0.2310    3.8060    0.8010 c         1 MOL      0.822810
     47 O7         -1.2240    4.2520    0.1410 o         1 MOL     -0.798261
     48 O8         -0.4170    3.4820    1.9600 o         1 MOL     -0.798261
     49 H21         3.1150    2.1610   -1.2770 hn        1 MOL      0.234330
     50 H22         2.0910    2.0960    1.3750 h1        1 MOL      0.042991
     51 H23         1.2460    4.1180   -0.7650 hc        1 MOL      0.051187
     52 H24         1.7540    4.5400    0.8300 hc        1 MOL      0.051187
     53 N5          0.2950    0.5340    0.4580 n         1 MOL     -0.235005
     54 C17         0.3470    0.3260    1.8790 c3        1 MOL     -0.298287
     55 C18         1.4900   -0.6190    2.2290 c         1 MOL      0.631921
     56 O9          2.5250   -0.5230    1.6440 o         1 MOL     -0.483817
     57 H25        -0.2290   -0.0870   -0.1370 hn        1 MOL      0.258067
     58 H26        -0.6020   -0.0820    2.2230 h1        1 MOL      0.134351
     59 H27         0.5960    1.2500    2.4230 h1        1 MOL      0.134351
     60 N6          1.2700   -1.4660    3.2530 n         1 MOL     -0.559865
     61 C19         2.3260   -2.3710    3.7150 c3        1 MOL      0.370167
     62 C20         2.0380   -3.9480    3.5630 c         1 MOL      0.216643
     63 O10         0.9230   -4.4660    3.3240 o         1 MOL     -0.447347
     64 C21         2.5480   -2.0710    5.2470 c3        1 MOL     -0.068496
     65 C22         3.6910   -2.7910    5.9510 c         1 MOL      0.614896
     66 O11         4.7100   -3.2010    5.3750 o         1 MOL     -0.660720
     67 O12         3.4910   -3.1650    7.1470 o         1 MOL     -0.660720
     68 H28         0.4210   -1.4080    3.7920 hn        1 MOL      0.271294
     69 H29         3.2770   -2.1370    3.2250 h1        1 MOL     -0.069504
     70 H30         1.6910   -2.1430    5.9130 hc        1 MOL      0.011778
     71 H31         2.7840   -1.0110    5.3460 hc        1 MOL      0.011778
     72 N7          3.0620   -4.7940    3.7460 n         1 MOL     -0.151831
     73 C23         2.8140   -6.2880    3.8140 c3        1 MOL      0.025449
     74 C24         2.7580   -7.0210    2.4330 c         1 MOL      0.438587
     75 O13         2.1350   -8.0440    2.2350 o         1 MOL     -0.538176
     76 H32         3.9740   -4.4340    3.9730 hn        1 MOL      0.186281
     77 H33         1.8420   -6.4150    4.2860 h1        1 MOL      0.066137
     78 H34         3.5280   -6.8610    4.4070 h1        1 MOL      0.066137
     79 N8          3.3870   -6.4200    1.4370 n         1 MOL     -0.232260
     80 C25         3.1720   -6.8350    0.0580 c3        1 MOL      0.054759
     81 C26         2.9040   -5.5540   -0.7380 c         1 MOL      0.452398
     82 O14         3.4330   -4.4760   -0.4130 o         1 MOL     -0.624866
     83 C27         4.5280   -7.3140   -0.5000 c3        1 MOL      0.332467
     84 C28         5.2560   -8.4610    0.2710 c3        1 MOL     -0.676706
     85 O15         4.4440   -7.6340   -1.8620 oh        1 MOL     -0.649896
     86 H35         4.1150   -5.7660    1.6890 hn        1 MOL      0.165546
     87 H36         2.3990   -7.5710   -0.1560 h1        1 MOL      0.095994
     88 H37         5.2860   -6.5260   -0.5170 h1        1 MOL      0.009204
     89 H38         5.3070   -7.9940   -2.0920 ho        1 MOL      0.420757
     90 H39         5.5380   -8.2290    1.2990 hc        1 MOL      0.190283
     91 H40         4.5400   -9.2790    0.3510 hc        1 MOL      0.190283
     92 H41         6.0700   -8.6340   -0.4340 hc        1 MOL      0.190283
     93 N9          2.1620   -5.6590   -1.8490 n         1 MOL     -0.187233
     94 C29         1.8960   -4.5390   -2.7640 c3        1 MOL      0.096523
     95 C30         0.5980   -3.7420   -2.4240 c         1 MOL      0.519439
     96 O16         0.5320   -2.5360   -2.6730 o         1 MOL     -0.539545
     97 C31         1.9020   -4.9980   -4.2510 c3        1 MOL     -0.052681
     98 C32         3.1330   -5.6940   -4.7060 c3        1 MOL      0.247503
     99 C33         1.5550   -3.8800   -5.2400 c3        1 MOL     -0.219394
    100 C34         4.4700   -4.9800   -4.7210 c3        1 MOL     -0.283987
    101 H42         1.9640   -6.6130   -2.0890 hn        1 MOL      0.215435
    102 H43         2.7500   -3.8660   -2.6700 h1        1 MOL     -0.012375
    103 H44         1.1320   -5.7720   -4.3180 hc        1 MOL     -0.000301
    104 H45         2.9850   -6.0790   -5.7100 hc        1 MOL     -0.033077
    105 H46         3.2420   -6.6530   -4.1890 hc        1 MOL     -0.033077
    106 H47         1.7390   -4.1930   -6.2680 hc        1 MOL      0.075170
    107 H48         0.5900   -3.4120   -5.0850 hc        1 MOL      0.075170
    108 H49         2.3130   -3.1060   -5.1140 hc        1 MOL      0.075170
    109 H50         5.1270   -5.6330   -5.2960 hc        1 MOL      0.061015
    110 H51         4.4180   -4.0330   -5.2600 hc        1 MOL      0.061015
    111 H52         4.8360   -4.9730   -3.7040 hc        1 MOL      0.061015
    112 N10        -0.3890   -4.3350   -1.8040 n         1 MOL     -0.346048
    113 C35        -1.5280   -3.7170   -1.0850 c3        1 MOL      0.022830
    114 C36        -2.8820   -4.3040   -1.4540 c         1 MOL      0.551849
    115 O17        -3.0280   -5.4410   -1.8580 o         1 MOL     -0.512696
    116 C37        -1.3050   -3.8910    0.4570 c3        1 MOL      0.081428
    117 C38        -1.0730   -5.3820    0.9490 c3        1 MOL     -0.165703
    118 O18        -0.1220   -3.1960    0.8050 oh        1 MOL     -0.447227
    119 H53        -0.3420   -5.3320   -1.7420 hn        1 MOL      0.195297
    120 H54        -1.6250   -2.6400   -1.2580 h1        1 MOL      0.112563
    121 H55        -2.1000   -3.4410    1.0510 h1        1 MOL      0.041495
    122 H56         0.1500   -3.5090    1.6730 ho        1 MOL      0.292207
    123 H57        -1.1910   -5.4770    2.0270 hc        1 MOL      0.055981
    124 H58        -1.8500   -6.0320    0.5510 hc        1 MOL      0.055981
    125 H59        -0.1100   -5.7750    0.6410 hc        1 MOL      0.055981
    126 N11        -3.9320   -3.4750   -1.2650 n         1 MOL     -0.496416
    127 C39        -5.3490   -3.8120   -1.5580 c3        1 MOL      0.200427
    128 C40        -5.9990   -2.6640   -2.3540 c         1 MOL      0.308102
    129 O19        -5.7870   -2.6230   -3.5590 o         1 MOL     -0.500837
    130 C41        -6.1220   -4.2040   -0.3010 c3        1 MOL      0.124343
    131 C42        -7.5670   -4.6800   -0.6580 c3        1 MOL     -0.364334
    132 O20        -6.1200   -3.1380    0.7670 oh        1 MOL     -0.614476
    133 H60        -3.8800   -2.5220   -0.9450 hn        1 MOL      0.287153
    134 H61        -5.4070   -4.7010   -2.1980 h1        1 MOL      0.076268
    135 H62        -5.6280   -5.0560    0.1610 h1        1 MOL      0.082263
    136 H63        -6.7980   -3.4710    1.3560 ho        1 MOL      0.409211
    137 H64        -7.8270   -5.3990    0.1170 hc        1 MOL      0.100061
    138 H65        -8.3010   -3.8770   -0.6450 hc        1 MOL      0.100061
    139 H66        -7.6190   -5.1930   -1.6190 hc        1 MOL      0.100061
    140 N12        -6.5290   -1.6770   -1.6490 n         1 MOL     -0.017302
    141 C43        -7.0240   -0.4150   -2.1280 c3        1 MOL     -0.040980
    142 C44        -6.4010    0.7530   -1.2870 c         1 MOL      0.269427
    143 O21        -6.0410    0.5060   -0.1390 o         1 MOL     -0.457007
    144 C45        -8.5620   -0.3310   -2.1790 c3        1 MOL     -0.314343
    145 C46        -9.2210   -0.2860   -0.8160 c3        1 MOL      0.018495
    146 C47       -10.7460   -0.3220   -0.7190 c3        1 MOL     -0.031249
    147 C48       -11.2000    0.1060    0.7100 c3        1 MOL      0.030874
    148 N13       -12.6130   -0.3260    0.9480 n4        1 MOL     -0.221943
    149 H67        -6.5270   -1.6640   -0.6390 hn        1 MOL      0.148221
    150 H68        -6.6420   -0.3050   -3.1490 h1        1 MOL      0.093180
    151 H69        -8.9360   -1.2200   -2.6960 hc        1 MOL      0.105676
    152 H70        -8.8630    0.5300   -2.7930 hc        1 MOL      0.105676
    153 H71        -8.8570    0.6540   -0.3890 hc        1 MOL      0.030199
    154 H72        -8.8920   -1.1620   -0.2650 hc        1 MOL      0.030199
    155 H73       -11.1920   -1.2900   -0.9760 hc        1 MOL      0.040484
    156 H74       -11.1520    0.4510   -1.3750 hc        1 MOL      0.040484
    157 H75       -11.0970    1.1910    0.7540 hx        1 MOL      0.067189
    158 H76       -10.5940   -0.3380    1.5060 hx        1 MOL      0.067189
    159 H77       -12.6340   -1.3290    0.9010 hn        1 MOL      0.207526
    160 H78       -12.8180   -0.0480    1.9010 hn        1 MOL      0.207526
    161 H79       -13.1450    0.1120    0.2050 hn        1 MOL      0.207526
    162 N14        -6.2540    1.9160   -1.8830 n         1 MOL     -0.096541
    163 C49        -5.7530    3.0690   -1.1080 c3        1 MOL     -0.147290
    164 C50        -4.2740    2.8590   -0.5900 c         1 MOL      0.907311
    165 O22        -4.1280    3.0850    0.6110 o         1 MOL     -0.909998
    166 C51        -5.7830    4.2730   -2.0770 c3        1 MOL     -0.196929
    167 C52        -5.9310    5.6960   -1.3820 c3        1 MOL     -0.021538
    168 C53        -4.5180    6.2370   -0.9130 c         1 MOL      0.588460
    169 O23        -4.0890    6.0650    0.2560 o         1 MOL     -0.644351
    170 O24        -3.8100    6.9120   -1.6480 o         1 MOL     -0.644351
    171 H80        -6.4610    2.0740   -2.8610 hn        1 MOL      0.208234
    172 H81        -6.4100    3.2780   -0.2650 h1        1 MOL      0.096697
    173 H82        -6.6640    4.1710   -2.7060 hc        1 MOL      0.077777
    174 H83        -4.9210    4.3040   -2.7420 hc        1 MOL      0.077777
    175 H84        -6.5770    5.7110   -0.5070 hc        1 MOL     -0.004136
    176 H85        -6.3080    6.4500   -2.0760 hc        1 MOL     -0.004136
    177 N15        -3.2330    2.4030   -1.2870 n         1 MOL     -0.489083
    178 C54        -3.1700    2.0180   -2.7520 c3        1 MOL     -0.185111
    179 H86        -2.4460    1.2140   -2.8850 h1        1 MOL      0.105032
    180 H87        -4.1530    1.6800   -3.0810 h1        1 MOL      0.105032
    181 H88        -2.8660    2.8820   -3.3420 h1        1 MOL      0.105032
    182 H89        -2.3590    2.3550   -0.7790 hn        1 MOL      0.403385
    183 Ca1        -2.8490    4.8940    2.2170 Ca        1 MOL      1.845229
    184 O25        -5.4900    4.4730    2.6500 oh        1 MOL     -0.845570
    185 H90        -6.3010    4.4470    3.1550 ho        1 MOL      0.418127
    186 H91        -5.5190    3.6750    2.1120 ho        1 MOL      0.418127
    187 O26        -1.0800    6.9160    1.8750 oh        1 MOL     -0.845570
    188 H92        -0.1960    6.7300    2.2010 ho        1 MOL      0.418127
    189 H93        -0.9350    7.3970    1.0650 ho        1 MOL      0.418127
    190 O27        -3.5750    7.2440    3.2930 oh        1 MOL     -0.845570
    191 H94        -3.5510    7.4510    4.2240 ho        1 MOL      0.418127
    192 H95        -3.3140    8.0540    2.8650 ho        1 MOL      0.418127
    193 O28        -2.5400    5.0640    4.8590 oh        1 MOL     -0.845570
    194 H96        -3.1280    4.7910    5.5650 ho        1 MOL      0.418127
    195 H97        -1.6870    5.1570    5.2840 ho        1 MOL      0.418127
    196 O29        -3.1770    2.5350    3.3680 oh        1 MOL     -0.845570
    197 H98        -3.2530    2.5860    4.3160 ho        1 MOL      0.418127
    198 H99        -3.6590    1.7490    3.1290 ho        1 MOL      0.418127
@<TRIPOS>BOND
     1    1    2 1   
     2    1    4 1   
     3    1    5 1   
     4    1    6 1   
     5    2    3 2   
     6    2    7 1   
     7    7    8 1   
     8    7   15 1   
     9    8    9 1   
    10    8   11 1   
    11    8   16 1   
    12    9   10 2   
    13    9   19 1   
    14   11   12 1   
    15   11   17 1   
    16   11   18 1   
    17   12   13 1   
    18   12   14 1   
    19   19   20 1   
    20   19   28 1   
    21   20   21 1   
    22   20   23 1   
    23   20   29 1   
    24   21   22 2   
    25   21   41 1   
    26   23   24 1   
    27   23   30 1   
    28   23   31 1   
    29   24   25 1   
    30   24   32 1   
    31   24   33 1   
    32   25   26 1   
    33   25   34 1   
    34   25   35 1   
    35   26   27 1   
    36   26   36 1   
    37   26   37 1   
    38   27   38 1   
    39   27   39 1   
    40   27   40 1   
    41   41   42 1   
    42   41   49 1   
    43   42   43 1   
    44   42   45 1   
    45   42   50 1   
    46   43   44 2   
    47   43   53 1   
    48   45   46 1   
    49   45   51 1   
    50   45   52 1   
    51   46   47 1   
    52   46   48 1   
    53   53   54 1   
    54   53   57 1   
    55   54   55 1   
    56   54   58 1   
    57   54   59 1   
    58   55   56 2   
    59   55   60 1   
    60   60   61 1   
    61   60   68 1   
    62   61   62 1   
    63   61   64 1   
    64   61   69 1   
    65   62   63 2   
    66   62   72 1   
    67   64   65 1   
    68   64   70 1   
    69   64   71 1   
    70   65   66 1   
    71   65   67 1   
    72   72   73 1   
    73   72   76 1   
    74   73   74 1   
    75   73   77 1   
    76   73   78 1   
    77   74   75 2   
    78   74   79 1   
    79   79   80 1   
    80   79   86 1   
    81   80   81 1   
    82   80   83 1   
    83   80   87 1   
    84   81   82 2   
    85   81   93 1   
    86   83   84 1   
    87   83   85 1   
    88   83   88 1   
    89   84   90 1   
    90   84   91 1   
    91   84   92 1   
    92   85   89 1   
    93   93   94 1   
    94   93  101 1   
    95   94   95 1   
    96   94   97 1   
    97   94  102 1   
    98   95   96 2   
    99   95  112 1   
   100   97   98 1   
   101   97   99 1   
   102   97  103 1   
   103   98  100 1   
   104   98  104 1   
   105   98  105 1   
   106   99  106 1   
   107   99  107 1   
   108   99  108 1   
   109  100  109 1   
   110  100  110 1   
   111  100  111 1   
   112  112  113 1   
   113  112  119 1   
   114  113  114 1   
   115  113  116 1   
   116  113  120 1   
   117  114  115 2   
   118  114  126 1   
   119  116  117 1   
   120  116  118 1   
   121  116  121 1   
   122  117  123 1   
   123  117  124 1   
   124  117  125 1   
   125  118  122 1   
   126  126  127 1   
   127  126  133 1   
   128  127  128 1   
   129  127  130 1   
   130  127  134 1   
   131  128  129 2   
   132  128  140 1   
   133  130  131 1   
   134  130  132 1   
   135  130  135 1   
   136  131  137 1   
   137  131  138 1   
   138  131  139 1   
   139  132  136 1   
   140  140  141 1   
   141  140  149 1   
   142  141  142 1   
   143  141  144 1   
   144  141  150 1   
   145  142  143 2   
   146  142  162 1   
   147  144  145 1   
   148  144  151 1   
   149  144  152 1   
   150  145  146 1   
   151  145  153 1   
   152  145  154 1   
   153  146  147 1   
   154  146  155 1   
   155  146  156 1   
   156  147  148 1   
   157  147  157 1   
   158  147  158 1   
   159  148  159 1   
   160  148  160 1   
   161  148  161 1   
   162  162  163 1   
   163  162  171 1   
   164  163  164 1   
   165  163  166 1   
   166  163  172 1   
   167  164  165 2   
   168  164  177 1   
   169  166  167 1   
   170  166  173 1   
   171  166  174 1   
   172  167  168 1   
   173  167  175 1   
   174  167  176 1   
   175  168  169 1   
   176  168  170 1   
   177  177  178 1   
   178  177  182 1   
   179  178  179 1   
   180  178  180 1   
   181  178  181 1   
   182  184  185 1   
   183  184  186 1   
   184  187  188 1   
   185  187  189 1   
   186  190  191 1   
   187  190  192 1   
   188  193  194 1   
   189  193  195 1   
   190  196  197 1   
   191  196  198 1   
@<TRIPOS>SUBSTRUCTURE
     1 MOL         1 TEMP              0 ****  ****    0 ROOT
