@<TRIPOS>MOLECULE
MOL
  192   187     1     0     0
SMALL
resp


@<TRIPOS>ATOM
      1 C1          3.1470   -7.4360    0.3870 c3        1 MOL     -0.314952
      2 C2          3.1650   -5.9040    0.5410 c         1 MOL      0.720898
      3 O1          2.9300   -5.3510    1.5690 o         1 MOL     -0.611549
      4 H1          2.5940   -7.7040   -0.5130 hc        1 MOL      0.075002
      5 H2          4.1700   -7.8060    0.3080 hc        1 MOL      0.075002
      6 H3          2.6650   -7.8830    1.2560 hc        1 MOL      0.075002
      7 N1          3.3730   -5.2300   -0.5890 n         1 MOL     -0.535009
      8 C3          3.4880   -3.7090   -0.6280 c3        1 MOL      0.172477
      9 C4          2.1180   -3.0470   -1.0910 c         1 MOL      0.374202
     10 O2          2.1510   -1.8880   -1.4690 o         1 MOL     -0.441542
     11 C5          4.6760   -3.4700   -1.6160 c3        1 MOL     -0.335529
     12 C6          4.3440   -4.0030   -2.9960 c         1 MOL      0.794141
     13 O3          3.9070   -3.2790   -3.8670 o         1 MOL     -0.732674
     14 O4          4.5500   -5.2600   -3.1700 o         1 MOL     -0.732674
     15 H4          3.7780   -5.7540   -1.3520 hn        1 MOL      0.284291
     16 H5          3.8350   -3.3210    0.3290 h1        1 MOL      0.084230
     17 H6          5.5900   -3.9430   -1.2590 hc        1 MOL      0.078472
     18 H7          4.7010   -2.3860   -1.7520 hc        1 MOL      0.078472
     19 N2          0.9620   -3.7390   -0.9610 n         1 MOL     -0.282449
     20 C7         -0.4120   -3.2870   -1.2870 c3        1 MOL      0.038317
     21 C8         -1.2650   -3.5370   -0.1430 c         1 MOL      0.612142
     22 O5         -1.2500   -4.6500    0.3550 o         1 MOL     -0.587879
     23 C9         -0.8920   -4.1220   -2.5170 c3        1 MOL     -0.055321
     24 C10        -0.0590   -4.0740   -3.8270 c3        1 MOL     -0.177105
     25 C11         0.1250   -2.6270   -4.3660 c3        1 MOL      0.246831
     26 C12         0.6310   -2.5900   -5.8320 c3        1 MOL     -0.132603
     27 N3          2.0510   -2.9240   -5.8880 n4        1 MOL     -0.161806
     28 H8          1.0890   -4.7120   -0.7130 hn        1 MOL      0.236574
     29 H9         -0.5020   -2.2280   -1.5190 h1        1 MOL      0.105039
     30 H10        -1.9190   -3.8480   -2.7730 hc        1 MOL      0.052130
     31 H11        -0.9400   -5.1650   -2.2120 hc        1 MOL      0.052130
     32 H12        -0.6480   -4.5890   -4.5970 hc        1 MOL      0.030211
     33 H13         0.9740   -4.4050   -3.7380 hc        1 MOL      0.030211
     34 H14         0.8090   -2.0570   -3.7470 hc        1 MOL     -0.002654
     35 H15        -0.8550   -2.1380   -4.3170 hc        1 MOL     -0.002654
     36 H16         0.4230   -1.5740   -6.1750 hx        1 MOL      0.090575
     37 H17         0.1050   -3.3140   -6.4410 hx        1 MOL      0.090575
     38 H18         2.6540   -2.2540   -5.4310 hn        1 MOL      0.267920
     39 H19         2.2820   -3.7890   -5.4280 hn        1 MOL      0.267920
     40 H20         2.3310   -3.1050   -6.8350 hn        1 MOL      0.267920
     41 N4         -2.0190   -2.5890    0.4060 n         1 MOL     -0.474514
     42 C13        -2.3190   -1.2310   -0.1520 c3        1 MOL     -0.024175
     43 C14        -2.7340   -1.1690   -1.7040 c         1 MOL      0.449746
     44 O6         -2.0560   -0.5100   -2.4620 o         1 MOL     -0.525485
     45 C15        -1.1390   -0.2260    0.1900 c3        1 MOL     -0.093835
     46 C16        -0.7550   -0.2360    1.6540 c         1 MOL      0.890829
     47 O7          0.4400   -0.0950    1.9980 o         1 MOL     -0.826954
     48 O8         -1.6630   -0.2380    2.5080 o         1 MOL     -0.826954
     49 H21        -2.5280   -2.7420    1.2660 hn        1 MOL      0.276026
     50 H22        -3.1910   -0.7890    0.3220 h1        1 MOL      0.076545
     51 H23        -1.4560    0.7660   -0.1410 hc        1 MOL      0.059754
     52 H24        -0.2550   -0.4830   -0.3800 hc        1 MOL      0.059754
     53 N5         -3.8190   -1.8710   -2.1280 n         1 MOL     -0.428301
     54 C17        -4.8130   -2.4550   -1.2430 c3        1 MOL      0.109343
     55 C18        -6.1910   -2.6110   -1.7910 c         1 MOL      0.565501
     56 O9         -6.4190   -2.5310   -2.9990 o         1 MOL     -0.574743
     57 H25        -3.9030   -2.0210   -3.1300 hn        1 MOL      0.283750
     58 H26        -4.9620   -1.7160   -0.4560 h1        1 MOL      0.026237
     59 H27        -4.3940   -3.4250   -0.9700 h1        1 MOL      0.026237
     60 N6         -7.1700   -2.9810   -1.0070 n         1 MOL     -0.454868
     61 C19        -7.2390   -2.8090    0.4580 c3        1 MOL     -0.020532
     62 C20        -7.8840   -1.4350    0.8100 c         1 MOL      0.518425
     63 O10        -8.5870   -0.8650   -0.0160 o         1 MOL     -0.434543
     64 C21        -8.1590   -3.8860    0.9940 c3        1 MOL     -0.144911
     65 C22        -9.5920   -4.0290    0.3660 c         1 MOL      0.702361
     66 O11       -10.5860   -4.3840    1.0830 o         1 MOL     -0.623103
     67 O12        -9.7090   -3.9710   -0.8820 o         1 MOL     -0.623103
     68 H28        -8.0500   -3.0400   -1.4870 hn        1 MOL      0.326782
     69 H29        -6.2630   -2.8380    0.9470 h1        1 MOL      0.021478
     70 H30        -8.3790   -3.6930    2.0480 hc        1 MOL      0.012821
     71 H31        -7.7430   -4.8930    0.8870 hc        1 MOL      0.012821
     72 N7         -7.6490   -1.0430    2.0700 n         1 MOL     -0.297598
     73 C23        -8.1860    0.2700    2.5670 c3        1 MOL     -0.380481
     74 C24        -7.3550    1.3680    1.8760 c         1 MOL      0.544077
     75 O13        -7.8880    2.0400    0.9630 o         1 MOL     -0.490227
     76 H32        -7.0860   -1.6870    2.6130 hn        1 MOL      0.265187
     77 H33        -8.0200    0.3590    3.6410 h1        1 MOL      0.183507
     78 H34        -9.2030    0.3530    2.1900 h1        1 MOL      0.183507
     79 N8         -6.0170    1.4180    2.1160 n         1 MOL     -0.593221
     80 C25        -5.1250    2.5090    1.5720 c3        1 MOL      0.280219
     81 C26        -4.7370    2.1820    0.1500 c         1 MOL      0.320382
     82 O14        -5.0210    1.0710   -0.3720 o         1 MOL     -0.407548
     83 C27        -3.9390    2.7950    2.4480 c3        1 MOL      0.433949
     84 C28        -4.2850    3.0460    3.9270 c3        1 MOL     -0.389157
     85 O15        -3.1320    3.9560    2.0350 oh        1 MOL     -0.652331
     86 H35        -5.6290    0.6480    2.6540 hn        1 MOL      0.276689
     87 H36        -5.7060    3.4300    1.5350 h1        1 MOL      0.034056
     88 H37        -3.2770    1.9430    2.3310 h1        1 MOL     -0.077010
     89 H38        -2.4800    4.1370    2.7120 ho        1 MOL      0.363281
     90 H39        -5.0630    3.7960    3.9990 hc        1 MOL      0.092167
     91 H40        -4.5980    2.1780    4.5100 hc        1 MOL      0.092167
     92 H41        -3.3560    3.3200    4.4240 hc        1 MOL      0.092167
     93 N9         -4.1090    3.1610   -0.5120 n         1 MOL     -0.184704
     94 C29        -3.8790    3.4030   -1.9980 c3        1 MOL     -0.054120
     95 C30        -2.4310    3.9430   -2.2860 c         1 MOL      0.456100
     96 O16        -2.0610    4.3580   -3.3670 o         1 MOL     -0.546584
     97 C31        -5.0220    4.3540   -2.5750 c3        1 MOL      0.075479
     98 C32        -5.0780    5.6170   -1.6440 c3        1 MOL      0.149197
     99 C33        -6.3280    3.6810   -2.7920 c3        1 MOL     -0.168193
    100 C34        -5.7470    6.7950   -2.3980 c3        1 MOL     -0.379829
    101 H42        -3.9320    4.0000    0.0180 hn        1 MOL      0.149861
    102 H43        -3.9980    2.4230   -2.4440 h1        1 MOL      0.123577
    103 H44        -4.6360    4.6000   -3.5580 hc        1 MOL      0.008620
    104 H45        -4.0990    5.8260   -1.2240 hc        1 MOL     -0.008460
    105 H46        -5.6220    5.3340   -0.7410 hc        1 MOL     -0.008460
    106 H47        -7.0050    4.3190   -3.3530 hc        1 MOL      0.056949
    107 H48        -6.2220    2.6880   -3.2380 hc        1 MOL      0.056949
    108 H49        -6.7660    3.6020   -1.8000 hc        1 MOL      0.056949
    109 H50        -5.8560    7.6980   -1.8070 hc        1 MOL      0.092943
    110 H51        -5.0680    7.0620   -3.2140 hc        1 MOL      0.092943
    111 H52        -6.7650    6.4810   -2.6330 hc        1 MOL      0.092943
    112 N10        -1.5290    4.0010   -1.2860 n         1 MOL     -0.189256
    113 C35        -0.1170    4.4370   -1.3990 c3        1 MOL      0.025530
    114 C36         0.8890    3.4010   -0.8930 c         1 MOL      0.433833
    115 O17         0.5690    2.4930   -0.1160 o         1 MOL     -0.434192
    116 C37         0.1000    5.8770   -0.7970 c3        1 MOL      0.359489
    117 C38        -0.1030    6.0620    0.7740 c3        1 MOL     -0.422811
    118 O18        -0.6870    6.8380   -1.4320 oh        1 MOL     -0.569147
    119 H53        -1.8560    3.5360   -0.4540 hn        1 MOL      0.128888
    120 H54         0.2450    4.5930   -2.4160 h1        1 MOL      0.061559
    121 H55         1.1480    6.0670   -1.0290 h1        1 MOL     -0.040027
    122 H56        -0.2190    7.0750   -2.2400 ho        1 MOL      0.375411
    123 H57         0.5010    5.3090    1.2930 hc        1 MOL      0.114665
    124 H58         0.1960    7.0830    0.9990 hc        1 MOL      0.114665
    125 H59        -1.1440    5.9650    1.0660 hc        1 MOL      0.114665
    126 N11         2.1120    3.4120   -1.5310 n         1 MOL     -0.434645
    127 C39         3.1450    2.3710   -1.4750 c3        1 MOL     -0.108057
    128 C40         4.6390    2.8090   -1.2190 c         1 MOL      0.516909
    129 O19         5.0580    3.8760   -1.7350 o         1 MOL     -0.552424
    130 C41         3.0590    1.3980   -2.6880 c3        1 MOL      0.657850
    131 C42         3.0980    1.8380   -4.1560 c3        1 MOL     -0.593912
    132 O20         1.8170    0.6830   -2.6550 oh        1 MOL     -0.588058
    133 H60         2.3500    4.2030   -2.1090 hn        1 MOL      0.269999
    134 H61         2.8210    1.7810   -0.6190 h1        1 MOL      0.130536
    135 H62         3.8850    0.7100   -2.5530 h1        1 MOL     -0.097503
    136 H63         1.8230   -0.0090   -1.9890 ho        1 MOL      0.259362
    137 H64         4.0910    2.2920   -4.2490 hc        1 MOL      0.142783
    138 H65         3.0960    0.9000   -4.7050 hc        1 MOL      0.142783
    139 H66         2.2440    2.5180   -4.2480 hc        1 MOL      0.142783
    140 N12         5.3240    1.9730   -0.4500 n         1 MOL     -0.358188
    141 C43         6.7030    2.1210    0.0540 c3        1 MOL     -0.099615
    142 C44         6.9380    1.5300    1.4540 c         1 MOL      0.663523
    143 O21         7.7190    2.1070    2.1820 o         1 MOL     -0.580624
    144 C45         7.5430    1.3350   -0.9320 c3        1 MOL      0.007374
    145 C46         8.9290    1.8120   -0.9300 c3        1 MOL      0.084624
    146 C47         9.7050    1.3950   -2.2120 c3        1 MOL     -0.080692
    147 C48         9.1780    2.1960   -3.5200 c3        1 MOL     -0.008437
    148 N13         9.9390    3.4560   -3.7840 n4        1 MOL     -0.215592
    149 H67         4.7790    1.1450   -0.2600 hn        1 MOL      0.201875
    150 H68         6.9480    3.1820    0.1070 h1        1 MOL      0.145541
    151 H69         7.1570    1.4800   -1.9490 hc        1 MOL      0.016141
    152 H70         7.5310    0.2550   -0.7690 hc        1 MOL      0.016141
    153 H71         9.4530    1.2630   -0.1510 hc        1 MOL     -0.007072
    154 H72         9.0340    2.8830   -0.7530 hc        1 MOL     -0.007072
    155 H73         9.5130    0.3420   -2.4170 hc        1 MOL      0.057342
    156 H74        10.7680    1.6330   -2.1440 hc        1 MOL      0.057342
    157 H75         8.1200    2.4120   -3.3360 hx        1 MOL      0.073177
    158 H76         9.2270    1.5530   -4.3910 hx        1 MOL      0.073177
    159 H77        10.9040    3.3020   -4.0540 hn        1 MOL      0.238294
    160 H78         9.4990    3.8030   -4.6180 hn        1 MOL      0.238294
    161 H79         9.9100    4.1370   -3.0390 hn        1 MOL      0.238294
    162 N14         6.1800    0.5280    1.8860 n         1 MOL     -0.522957
    163 C49         6.4450   -0.0560    3.2430 c3        1 MOL     -0.085327
    164 C50         7.0220   -1.4600    3.0880 c         1 MOL      0.423484
    165 O22         6.3070   -2.4130    2.7630 o         1 MOL     -0.487747
    166 C51         5.1010   -0.0580    3.9690 c3        1 MOL      0.036938
    167 C52         4.7000    1.2520    4.6180 c3        1 MOL     -0.069242
    168 C53         3.2200    1.3090    4.9760 c         1 MOL      0.633304
    169 O23         2.8240    2.1290    5.7770 o         1 MOL     -0.704786
    170 O24         2.3550    0.6490    4.3460 o         1 MOL     -0.704786
    171 H80         5.4460    0.0960    1.3350 hn        1 MOL      0.367747
    172 H81         7.1410    0.5730    3.8010 h1        1 MOL      0.119594
    173 H82         5.1260   -0.7700    4.7980 hc        1 MOL      0.017188
    174 H83         4.3750   -0.4170    3.2400 hc        1 MOL      0.017188
    175 H84         4.9120    1.9740    3.8400 hc        1 MOL      0.026374
    176 H85         5.3490    1.3380    5.4830 hc        1 MOL      0.026374
    177 N15         8.3040   -1.6490    3.3800 n         1 MOL     -0.257471
    178 C54         8.9970   -2.9440    3.1630 c3        1 MOL     -0.219982
    179 H86         8.5860   -3.4330    2.2800 h1        1 MOL      0.112775
    180 H87        10.0620   -2.7670    3.0170 h1        1 MOL      0.112775
    181 H88         8.8510   -3.5850    4.0340 h1        1 MOL      0.112775
    182 H89         8.8590   -0.8440    3.5960 hn        1 MOL      0.243490
    183 Ca1        -0.2250   -0.1200    4.6820 Ca        1 MOL      1.797963
    184 O25         0.8270   -1.3780    6.7180 oh        1 MOL     -0.976695
    185 H90         0.5860   -1.5610    7.6220 ho        1 MOL      0.474380
    186 H91         1.7570   -1.5830    6.6630 ho        1 MOL      0.474380
    187 O26         0.3420   -2.5990    3.6450 oh        1 MOL     -0.976695
    188 H92         1.1420   -3.0070    3.9840 ho        1 MOL      0.474380
    189 H93        -0.2610   -3.3290    3.5410 ho        1 MOL      0.474380
    190 O27        -0.2810    2.3770    3.7830 oh        1 MOL     -0.976695
    191 H94        -0.6090    3.2760    3.8390 ho        1 MOL      0.474380
    192 H95         0.4220    2.4240    3.1330 ho        1 MOL      0.474380
@<TRIPOS>BOND
     1    1    2 1   
     2    1    4 1   
     3    1    5 1   
     4    1    6 1   
     5    2    3 2   
     6    2    7 1   
     7    7    8 1   
     8    7   15 1   
     9    8    9 1   
    10    8   11 1   
    11    8   16 1   
    12    9   10 2   
    13    9   19 1   
    14   11   12 1   
    15   11   17 1   
    16   11   18 1   
    17   12   13 1   
    18   12   14 1   
    19   19   20 1   
    20   19   28 1   
    21   20   21 1   
    22   20   23 1   
    23   20   29 1   
    24   21   22 2   
    25   21   41 1   
    26   23   24 1   
    27   23   30 1   
    28   23   31 1   
    29   24   25 1   
    30   24   32 1   
    31   24   33 1   
    32   25   26 1   
    33   25   34 1   
    34   25   35 1   
    35   26   27 1   
    36   26   36 1   
    37   26   37 1   
    38   27   38 1   
    39   27   39 1   
    40   27   40 1   
    41   41   42 1   
    42   41   49 1   
    43   42   43 1   
    44   42   45 1   
    45   42   50 1   
    46   43   44 2   
    47   43   53 1   
    48   45   46 1   
    49   45   51 1   
    50   45   52 1   
    51   46   47 1   
    52   46   48 1   
    53   53   54 1   
    54   53   57 1   
    55   54   55 1   
    56   54   58 1   
    57   54   59 1   
    58   55   56 2   
    59   55   60 1   
    60   60   61 1   
    61   60   68 1   
    62   61   62 1   
    63   61   64 1   
    64   61   69 1   
    65   62   63 2   
    66   62   72 1   
    67   64   65 1   
    68   64   70 1   
    69   64   71 1   
    70   65   66 1   
    71   65   67 1   
    72   72   73 1   
    73   72   76 1   
    74   73   74 1   
    75   73   77 1   
    76   73   78 1   
    77   74   75 2   
    78   74   79 1   
    79   79   80 1   
    80   79   86 1   
    81   80   81 1   
    82   80   83 1   
    83   80   87 1   
    84   81   82 2   
    85   81   93 1   
    86   83   84 1   
    87   83   85 1   
    88   83   88 1   
    89   84   90 1   
    90   84   91 1   
    91   84   92 1   
    92   85   89 1   
    93   93   94 1   
    94   93  101 1   
    95   94   95 1   
    96   94   97 1   
    97   94  102 1   
    98   95   96 2   
    99   95  112 1   
   100   97   98 1   
   101   97   99 1   
   102   97  103 1   
   103   98  100 1   
   104   98  104 1   
   105   98  105 1   
   106   99  106 1   
   107   99  107 1   
   108   99  108 1   
   109  100  109 1   
   110  100  110 1   
   111  100  111 1   
   112  112  113 1   
   113  112  119 1   
   114  113  114 1   
   115  113  116 1   
   116  113  120 1   
   117  114  115 2   
   118  114  126 1   
   119  116  117 1   
   120  116  118 1   
   121  116  121 1   
   122  117  123 1   
   123  117  124 1   
   124  117  125 1   
   125  118  122 1   
   126  126  127 1   
   127  126  133 1   
   128  127  128 1   
   129  127  130 1   
   130  127  134 1   
   131  128  129 2   
   132  128  140 1   
   133  130  131 1   
   134  130  132 1   
   135  130  135 1   
   136  131  137 1   
   137  131  138 1   
   138  131  139 1   
   139  132  136 1   
   140  140  141 1   
   141  140  149 1   
   142  141  142 1   
   143  141  144 1   
   144  141  150 1   
   145  142  143 2   
   146  142  162 1   
   147  144  145 1   
   148  144  151 1   
   149  144  152 1   
   150  145  146 1   
   151  145  153 1   
   152  145  154 1   
   153  146  147 1   
   154  146  155 1   
   155  146  156 1   
   156  147  148 1   
   157  147  157 1   
   158  147  158 1   
   159  148  159 1   
   160  148  160 1   
   161  148  161 1   
   162  162  163 1   
   163  162  171 1   
   164  163  164 1   
   165  163  166 1   
   166  163  172 1   
   167  164  165 2   
   168  164  177 1   
   169  166  167 1   
   170  166  173 1   
   171  166  174 1   
   172  167  168 1   
   173  167  175 1   
   174  167  176 1   
   175  168  169 1   
   176  168  170 1   
   177  177  178 1   
   178  177  182 1   
   179  178  179 1   
   180  178  180 1   
   181  178  181 1   
   182  184  185 1   
   183  184  186 1   
   184  187  188 1   
   185  187  189 1   
   186  190  191 1   
   187  190  192 1   
@<TRIPOS>SUBSTRUCTURE
     1 MOL         1 TEMP              0 ****  ****    0 ROOT
