@<TRIPOS>MOLECULE
MOL
  188   182     1     0     0
SMALL
resp


@<TRIPOS>ATOM
      1 C1         -6.4180    3.4740   -2.5660 c3        1 MOL     -0.433137
      2 C2         -7.0360    2.4090   -1.5630 c         1 MOL      0.510834
      3 O1         -6.3350    1.7470   -0.7890 o         1 MOL     -0.444111
      4 H1         -6.9470    3.4260   -3.5180 hc        1 MOL      0.132206
      5 H2         -6.5210    4.4740   -2.1440 hc        1 MOL      0.132206
      6 H3         -5.3630    3.2530   -2.7260 hc        1 MOL      0.132206
      7 N1         -8.3640    2.4600   -1.3070 n         1 MOL     -0.610678
      8 C3         -9.2070    1.9390   -0.2620 c3        1 MOL      0.539876
      9 C4         -8.9840    0.4890    0.0520 c         1 MOL      0.027370
     10 O2         -8.8460    0.0850    1.1790 o         1 MOL     -0.409559
     11 C5         -9.3100    2.7900    1.0070 c3        1 MOL     -0.334343
     12 C6        -10.5720    2.5600    1.8320 c         1 MOL      0.697832
     13 O3        -10.6250    3.0220    3.0160 o         1 MOL     -0.705326
     14 O4        -11.5330    2.1200    1.2100 o         1 MOL     -0.705326
     15 H4         -8.8530    3.0420   -1.9770 hn        1 MOL      0.301458
     16 H5        -10.1820    1.9420   -0.7340 h1        1 MOL     -0.034977
     17 H6         -9.3260    3.8460    0.7600 hc        1 MOL      0.090923
     18 H7         -8.4370    2.5710    1.6200 hc        1 MOL      0.090923
     19 N2         -8.9230   -0.3580   -1.0440 n         1 MOL     -0.202692
     20 C7         -8.5210   -1.7940   -0.9810 c3        1 MOL      0.039761
     21 C8         -7.1160   -2.0890   -1.5040 c         1 MOL      0.702684
     22 O5         -6.8330   -3.1200   -1.9960 o         1 MOL     -0.584558
     23 C9         -9.5460   -2.5020   -1.8610 c3        1 MOL      0.029594
     24 C10       -11.0260   -2.4620   -1.4260 c3        1 MOL      0.096411
     25 C11       -11.2600   -3.1450   -0.0790 c3        1 MOL     -0.191132
     26 C12       -11.2740   -2.1010    0.9910 c3        1 MOL      0.060692
     27 N3        -11.2130   -2.6950    2.3460 n4        1 MOL     -0.476668
     28 H8         -8.9630    0.0050   -1.9820 hn        1 MOL      0.211895
     29 H9         -8.5160   -2.1590    0.0490 h1        1 MOL      0.073720
     30 H10        -9.2200   -3.5480   -1.8520 hc        1 MOL     -0.005117
     31 H11        -9.4450   -2.0680   -2.8510 hc        1 MOL     -0.005117
     32 H12       -11.4900   -2.9870   -2.2570 hc        1 MOL     -0.008757
     33 H13       -11.3220   -1.4170   -1.4360 hc        1 MOL     -0.008757
     34 H14       -10.5100   -3.9090    0.1590 hc        1 MOL      0.065234
     35 H15       -12.2200   -3.6380   -0.2040 hc        1 MOL      0.065234
     36 H16       -12.0980   -1.3900    0.9420 hx        1 MOL      0.124427
     37 H17       -10.2760   -1.6730    0.9380 hx        1 MOL      0.124427
     38 H18       -10.3630   -3.2040    2.5700 hn        1 MOL      0.352794
     39 H19       -11.3990   -2.0120    3.0690 hn        1 MOL      0.352794
     40 H20       -12.0060   -3.3080    2.4510 hn        1 MOL      0.352794
     41 N4         -6.1140   -1.1890   -1.2800 n         1 MOL     -0.835420
     42 C13        -4.6810   -1.4670   -1.4350 c3        1 MOL      0.292231
     43 C14        -4.2140   -2.7390   -0.6140 c         1 MOL      0.590261
     44 O6         -4.4250   -2.7210    0.6010 o         1 MOL     -0.544438
     45 C15        -3.8390   -0.1640   -1.1510 c3        1 MOL     -0.284776
     46 C16        -2.3470   -0.4100   -1.3710 c         1 MOL      0.650858
     47 O7         -1.8250   -0.1180   -2.4330 o         1 MOL     -0.696908
     48 O8         -1.7070   -1.0000   -0.4580 o         1 MOL     -0.696908
     49 H21        -6.3450   -0.3220   -0.8190 hn        1 MOL      0.438841
     50 H22        -4.5350   -1.7910   -2.4730 h1        1 MOL      0.039157
     51 H23        -4.0240    0.2290   -0.1460 hc        1 MOL      0.079470
     52 H24        -4.1910    0.7000   -1.7270 hc        1 MOL      0.079470
     53 N5         -3.4690   -3.6160   -1.2110 n         1 MOL     -0.369996
     54 C17        -2.8970   -4.8320   -0.5300 c3        1 MOL     -0.092195
     55 C18        -1.8220   -4.6300    0.5940 c         1 MOL      0.347599
     56 O9         -1.3410   -5.6130    1.2530 o         1 MOL     -0.538305
     57 H25        -3.2850   -3.5570   -2.2090 hn        1 MOL      0.229624
     58 H26        -2.5330   -5.5900   -1.2270 h1        1 MOL      0.107731
     59 H27        -3.7690   -5.3270   -0.0880 h1        1 MOL      0.107731
     60 N6         -1.3850   -3.4300    0.8960 n         1 MOL     -0.015883
     61 C19        -0.8250   -3.0930    2.2180 c3        1 MOL     -0.016885
     62 C20        -1.2720   -1.7320    2.7350 c         1 MOL      0.493249
     63 O10        -0.5390   -1.1050    3.4550 o         1 MOL     -0.520724
     64 C21         0.7010   -3.2450    2.1910 c3        1 MOL     -0.263488
     65 C22         1.4090   -2.2070    1.4160 c         1 MOL      0.577259
     66 N7          2.7220   -2.3060    1.3150 n         1 MOL     -0.630789
     67 O11         0.9330   -1.2450    0.8790 o         1 MOL     -0.454698
     68 H28        -1.5370   -2.6030    0.3320 hn        1 MOL     -0.047039
     69 H29        -1.2470   -3.8610    2.8680 h1        1 MOL      0.115903
     70 H30         0.9730   -4.2530    1.8780 hc        1 MOL      0.118780
     71 H31         1.0180   -3.0710    3.2160 hc        1 MOL      0.118780
     72 H32         3.1680   -3.1160    1.7220 hn        1 MOL      0.287733
     73 H33         3.2830   -1.5270    1.0190 hn        1 MOL      0.287733
     74 N8         -2.4620   -1.2130    2.3380 n         1 MOL     -0.327555
     75 C23        -3.0100    0.1130    2.8720 c3        1 MOL     -0.218946
     76 C24        -2.2440    1.3960    2.4490 c         1 MOL      0.421431
     77 O12        -2.4790    2.4740    3.0650 o         1 MOL     -0.541653
     78 H34        -3.0180   -1.7900    1.7150 hn        1 MOL      0.218773
     79 H35        -3.1210    0.0370    3.9580 h1        1 MOL      0.159643
     80 H36        -4.0220    0.2870    2.5210 h1        1 MOL      0.159643
     81 N9         -1.4370    1.2790    1.4410 n         1 MOL     -0.115419
     82 C25        -0.8300    2.4270    0.7350 c3        1 MOL      0.008174
     83 C26         0.5480    2.0760    0.1260 c         1 MOL      0.090740
     84 O13         0.7120    1.0660   -0.5520 o         1 MOL     -0.382792
     85 C27        -1.7530    2.9720   -0.3820 c3        1 MOL     -0.279222
     86 C28        -1.0460    3.8100   -1.4230 ca        1 MOL      0.057842
     87 C29        -0.4880    5.1200   -1.1950 ca        1 MOL     -0.125186
     88 C30        -0.9930    3.2500   -2.7100 ca        1 MOL     -0.125186
     89 C31         0.0540    5.8920   -2.2630 ca        1 MOL     -0.282440
     90 C32        -0.4210    4.0010   -3.7780 ca        1 MOL     -0.282440
     91 C33         0.1070    5.3020   -3.5480 ca        1 MOL      0.307848
     92 O14         0.6590    6.0270   -4.5730 oh        1 MOL     -0.437867
     93 H37        -1.2330    0.3610    1.0760 hn        1 MOL      0.195135
     94 H38        -0.7300    3.2210    1.4850 h1        1 MOL      0.080550
     95 H39        -2.4410    3.6580    0.1160 hc        1 MOL      0.150240
     96 H40        -2.2040    2.0920   -0.8470 hc        1 MOL      0.150240
     97 H41        -0.5330    5.5080   -0.1870 ha        1 MOL      0.136959
     98 H42        -1.5610    2.3460   -2.8860 ha        1 MOL      0.136959
     99 H43         0.4250    6.9010   -2.1240 ha        1 MOL      0.163823
    100 H44        -0.5670    3.5730   -4.7530 ha        1 MOL      0.163823
    101 H45         0.5980    5.4890   -5.3640 ho        1 MOL      0.340454
    102 N10         1.5470    2.8980    0.3660 n         1 MOL     -0.017081
    103 C34         2.9000    2.5600    0.0500 c3        1 MOL      0.004389
    104 C35         3.4020    1.5980    1.1380 c         1 MOL      0.071707
    105 O15         4.1990    0.6800    0.8220 o         1 MOL     -0.364352
    106 C36         3.7700    3.8040   -0.0450 c3        1 MOL      0.069844
    107 C37         3.3260    4.5150   -1.3690 c3        1 MOL      0.115004
    108 C38         5.3000    3.6660   -0.0040 c3        1 MOL     -0.155374
    109 C39         3.7630    5.9030   -1.6330 c3        1 MOL     -0.138160
    110 H46         1.4370    3.7900    0.8300 hn        1 MOL      0.184953
    111 H47         3.0310    2.0230   -0.8920 h1        1 MOL      0.065041
    112 H48         3.6000    4.4850    0.7880 hc        1 MOL     -0.007471
    113 H49         2.2390    4.5020   -1.4520 hc        1 MOL     -0.023530
    114 H50         3.5680    3.8710   -2.2080 hc        1 MOL     -0.023530
    115 H51         5.6390    3.1160    0.8720 hc        1 MOL      0.051219
    116 H52         5.4910    3.0610   -0.8940 hc        1 MOL      0.051219
    117 H53         5.7980    4.6250   -0.0790 hc        1 MOL      0.051219
    118 H54         3.2670    6.1540   -2.5690 hc        1 MOL      0.037548
    119 H55         3.3170    6.4830   -0.8180 hc        1 MOL      0.037548
    120 H56         4.8410    6.0890   -1.6720 hc        1 MOL      0.037548
    121 N11         2.8890    1.7240    2.4200 n         1 MOL     -0.044686
    122 C40         2.8730    0.6560    3.4420 c3        1 MOL     -0.026857
    123 C41         4.3070    0.2990    3.9760 c         1 MOL      0.395779
    124 O16         4.6060   -0.7600    4.4690 o         1 MOL     -0.511754
    125 C42         2.1580    1.0670    4.6640 c3        1 MOL     -0.052605
    126 O17         2.6620    2.3300    5.0480 oh        1 MOL     -0.659391
    127 H57         2.4050    2.5820    2.6340 hn        1 MOL      0.199539
    128 H58         2.4860   -0.3230    3.1510 h1        1 MOL      0.080874
    129 H59         2.3860    0.4710    5.5490 h1        1 MOL      0.127326
    130 H60         1.1300    1.1100    4.3020 h1        1 MOL      0.127326
    131 H61         2.1330    2.7720    5.7260 ho        1 MOL      0.447648
    132 N12         5.2180    1.2730    3.9290 n         1 MOL     -0.034915
    133 C43         6.6900    1.2500    4.1250 c3        1 MOL      0.168707
    134 C44         7.4590    0.1050    3.4450 c         1 MOL      0.419415
    135 O18         8.5520   -0.2030    3.9330 o         1 MOL     -0.493426
    136 C45         6.8840    1.2460    5.6610 c3        1 MOL     -0.387538
    137 H62         4.8290    2.1900    3.7720 hn        1 MOL      0.117041
    138 H63         6.9970    2.2480    3.8060 h1        1 MOL      0.031665
    139 H64         6.3380    2.1170    6.0180 hc        1 MOL      0.109621
    140 H65         6.4130    0.3400    6.0430 hc        1 MOL      0.109621
    141 H66         7.9570    1.2690    5.8550 hc        1 MOL      0.109621
    142 N13         6.9700   -0.4410    2.3160 n         1 MOL     -0.495070
    143 C46         7.5480   -1.5330    1.5720 c3        1 MOL      0.525719
    144 C47         7.8640   -1.1150    0.0790 c         1 MOL      0.178686
    145 O19         7.0270   -0.5080   -0.5740 o         1 MOL     -0.439644
    146 C48         6.5540   -2.6410    1.6730 c3        1 MOL     -0.141064
    147 H67         6.1860    0.0180    1.8710 hn        1 MOL      0.148276
    148 H68         8.4570   -1.7690    2.1240 h1        1 MOL     -0.049437
    149 H69         5.5950   -2.3420    1.2690 hc        1 MOL      0.031178
    150 H70         7.0000   -3.2870    0.9140 hc        1 MOL      0.031178
    151 H71         6.4650   -3.1890    2.6110 hc        1 MOL      0.031178
    152 N14         8.9700   -1.5810   -0.4760 n         1 MOL     -0.133013
    153 C49         9.5140   -1.1500   -1.8110 c3        1 MOL     -0.158227
    154 C50         9.8340    0.3550   -1.9160 c         1 MOL      0.407341
    155 O20         9.8790    0.8490   -3.0790 o         1 MOL     -0.478349
    156 C51         8.7200   -1.7380   -2.9920 c3        1 MOL     -0.137498
    157 C52         8.8290   -3.3090   -2.8640 c3        1 MOL      0.142504
    158 C53        10.2130   -3.8690   -3.1860 c         1 MOL      0.624185
    159 O21        11.1400   -3.2880   -3.7980 o         1 MOL     -0.659569
    160 O22        10.3730   -5.0760   -2.7350 o         1 MOL     -0.659569
    161 H72         9.5930   -2.1560    0.0750 hn        1 MOL      0.206070
    162 H73        10.5050   -1.6040   -1.8590 h1        1 MOL      0.143668
    163 H74         9.1100   -1.5580   -3.9990 hc        1 MOL      0.072103
    164 H75         7.6500   -1.5600   -2.9090 hc        1 MOL      0.072103
    165 H76         8.1150   -3.7350   -3.5790 hc        1 MOL     -0.091110
    166 H77         8.5650   -3.6150   -1.8540 hc        1 MOL     -0.091110
    167 N15        10.1790    1.0090   -0.7670 n         1 MOL     -0.214535
    168 C54        10.4910    2.3950   -0.7230 c3        1 MOL     -0.054475
    169 H78        11.3970    2.5450   -0.1350 h1        1 MOL      0.052630
    170 H79        10.6510    2.7650   -1.7360 h1        1 MOL      0.052630
    171 H80         9.6660    2.9400   -0.2630 h1        1 MOL      0.052630
    172 H81        10.4870    0.4950    0.0380 hn        1 MOL      0.195273
    173 Ca1         0.4490   -1.0690   -1.7990 Ca        1 MOL      1.762493
    174 O23         3.1540   -0.8820   -1.3700 oh        1 MOL     -0.817812
    175 H82         3.6570   -0.2140   -0.8930 ho        1 MOL      0.395557
    176 H83         3.8220   -1.4400   -1.7760 ho        1 MOL      0.395557
    177 O24        -1.2160   -2.8320   -3.1720 oh        1 MOL     -0.817812
    178 H84        -0.8890   -3.7260   -3.2840 ho        1 MOL      0.395557
    179 H85        -1.8570   -2.7180   -3.8690 ho        1 MOL      0.395557
    180 O25         1.1340    0.8790   -3.4520 oh        1 MOL     -0.817812
    181 H86         1.2920    0.9530   -4.3890 ho        1 MOL      0.395557
    182 H87         1.4770    1.6950   -3.0870 ho        1 MOL      0.395557
    183 O26         0.8350   -3.8240   -1.5290 oh        1 MOL     -0.817812
    184 H88         1.1600   -4.3340   -0.7960 ho        1 MOL      0.395557
    185 H89         0.1990   -4.4020   -1.9560 ho        1 MOL      0.395557
    186 O27         1.7120   -2.1040   -3.9780 oh        1 MOL     -0.817812
    187 H90         2.1710   -1.7470   -4.7410 ho        1 MOL      0.395557
    188 H91         1.6540   -3.0370   -4.1490 ho        1 MOL      0.395557
@<TRIPOS>BOND
     1    1    2 1   
     2    1    4 1   
     3    1    5 1   
     4    1    6 1   
     5    2    3 2   
     6    2    7 1   
     7    7    8 1   
     8    7   15 1   
     9    8    9 1   
    10    8   11 1   
    11    8   16 1   
    12    9   10 2   
    13    9   19 1   
    14   11   12 1   
    15   11   17 1   
    16   11   18 1   
    17   12   13 1   
    18   12   14 1   
    19   19   20 1   
    20   19   28 1   
    21   20   21 1   
    22   20   23 1   
    23   20   29 1   
    24   21   22 2   
    25   21   41 1   
    26   23   24 1   
    27   23   30 1   
    28   23   31 1   
    29   24   25 1   
    30   24   32 1   
    31   24   33 1   
    32   25   26 1   
    33   25   34 1   
    34   25   35 1   
    35   26   27 1   
    36   26   36 1   
    37   26   37 1   
    38   27   38 1   
    39   27   39 1   
    40   27   40 1   
    41   41   42 1   
    42   41   49 1   
    43   42   43 1   
    44   42   45 1   
    45   42   50 1   
    46   43   44 2   
    47   43   53 1   
    48   45   46 1   
    49   45   51 1   
    50   45   52 1   
    51   46   47 1   
    52   46   48 1   
    53   53   54 1   
    54   53   57 1   
    55   54   55 1   
    56   54   58 1   
    57   54   59 1   
    58   55   56 2   
    59   55   60 1   
    60   60   61 1   
    61   60   68 1   
    62   61   62 1   
    63   61   64 1   
    64   61   69 1   
    65   62   63 2   
    66   62   74 1   
    67   64   65 1   
    68   64   70 1   
    69   64   71 1   
    70   65   66 1   
    71   65   67 2   
    72   66   72 1   
    73   66   73 1   
    74   74   75 1   
    75   74   78 1   
    76   75   76 1   
    77   75   79 1   
    78   75   80 1   
    79   76   77 2   
    80   76   81 1   
    81   81   82 1   
    82   81   93 1   
    83   82   83 1   
    84   82   85 1   
    85   82   94 1   
    86   83   84 2   
    87   83  102 1   
    88   85   86 1   
    89   85   95 1   
    90   85   96 1   
    91   86   87 ar  
    92   86   88 ar  
    93   87   89 ar  
    94   87   97 1   
    95   88   90 ar  
    96   88   98 1   
    97   89   91 ar  
    98   89   99 1   
    99   90   91 ar  
   100   90  100 1   
   101   91   92 1   
   102   92  101 1   
   103  102  103 1   
   104  102  110 1   
   105  103  104 1   
   106  103  106 1   
   107  103  111 1   
   108  104  105 2   
   109  104  121 1   
   110  106  107 1   
   111  106  108 1   
   112  106  112 1   
   113  107  109 1   
   114  107  113 1   
   115  107  114 1   
   116  108  115 1   
   117  108  116 1   
   118  108  117 1   
   119  109  118 1   
   120  109  119 1   
   121  109  120 1   
   122  121  122 1   
   123  121  127 1   
   124  122  123 1   
   125  122  125 1   
   126  122  128 1   
   127  123  124 2   
   128  123  132 1   
   129  125  126 1   
   130  125  129 1   
   131  125  130 1   
   132  126  131 1   
   133  132  133 1   
   134  132  137 1   
   135  133  134 1   
   136  133  136 1   
   137  133  138 1   
   138  134  135 2   
   139  134  142 1   
   140  136  139 1   
   141  136  140 1   
   142  136  141 1   
   143  142  143 1   
   144  142  147 1   
   145  143  144 1   
   146  143  146 1   
   147  143  148 1   
   148  144  145 2   
   149  144  152 1   
   150  146  149 1   
   151  146  150 1   
   152  146  151 1   
   153  152  153 1   
   154  152  161 1   
   155  153  154 1   
   156  153  156 1   
   157  153  162 1   
   158  154  155 2   
   159  154  167 1   
   160  156  157 1   
   161  156  163 1   
   162  156  164 1   
   163  157  158 1   
   164  157  165 1   
   165  157  166 1   
   166  158  159 1   
   167  158  160 1   
   168  167  168 1   
   169  167  172 1   
   170  168  169 1   
   171  168  170 1   
   172  168  171 1   
   173  174  175 1   
   174  174  176 1   
   175  177  178 1   
   176  177  179 1   
   177  180  181 1   
   178  180  182 1   
   179  183  184 1   
   180  183  185 1   
   181  186  187 1   
   182  186  188 1   
@<TRIPOS>SUBSTRUCTURE
     1 MOL         1 TEMP              0 ****  ****    0 ROOT
