@<TRIPOS>MOLECULE
MOL
  182   178     1     0     0
SMALL
resp


@<TRIPOS>ATOM
      1 C1         -7.1640    1.1880   -3.4520 c3        1 MOL     -0.617760
      2 C2         -7.4310    0.4210   -2.1530 c         1 MOL      0.704558
      3 O1         -6.4780    0.1200   -1.4120 o         1 MOL     -0.536973
      4 H1         -6.1520    0.9750   -3.7970 hc        1 MOL      0.163969
      5 H2         -7.8800    0.8750   -4.2120 hc        1 MOL      0.163969
      6 H3         -7.2680    2.2580   -3.2720 hc        1 MOL      0.163969
      7 N1         -8.6610    0.0660   -1.8180 n         1 MOL     -0.637518
      8 C3         -8.9540   -0.3710   -0.5040 c3        1 MOL     -0.048011
      9 C4         -8.3200   -1.7320   -0.1220 c         1 MOL      0.466173
     10 O2         -8.1260   -2.0380    1.0870 o         1 MOL     -0.518224
     11 C5         -8.8230    0.6760    0.6010 c3        1 MOL      0.011145
     12 C6         -9.3600    2.0210    0.2370 c         1 MOL      0.752720
     13 O3         -9.1320    2.9170    1.0280 o         1 MOL     -0.712756
     14 O4        -10.1590    2.0910   -0.6980 o         1 MOL     -0.712756
     15 H4         -9.4590    0.4340   -2.3200 hn        1 MOL      0.343883
     16 H5        -10.0100   -0.6720   -0.4670 h1        1 MOL      0.109827
     17 H6         -7.7970    0.7340    0.9640 hc        1 MOL      0.016940
     18 H7         -9.4500    0.4270    1.4500 hc        1 MOL      0.016940
     19 N2         -7.8440   -2.5220   -1.1350 n         1 MOL     -0.413795
     20 C7         -7.0600   -3.8130   -1.0570 c3        1 MOL     -0.015486
     21 C8         -5.6060   -3.7520   -0.4890 c         1 MOL      0.454894
     22 O5         -4.7010   -4.5000   -0.9130 o         1 MOL     -0.533543
     23 C9         -7.0980   -4.4090   -2.4850 c3        1 MOL     -0.286914
     24 C10        -6.3110   -3.6600   -3.5110 c3        1 MOL      0.236293
     25 C11        -6.6680   -3.9790   -4.9950 c3        1 MOL     -0.025361
     26 C12        -5.6250   -3.4380   -5.9620 c3        1 MOL     -0.299281
     27 N3         -5.4480   -2.0380   -5.9280 n4        1 MOL     -0.189358
     28 H8         -8.0090   -2.1650   -2.0610 hn        1 MOL      0.266810
     29 H9         -7.6520   -4.5480   -0.5170 h1        1 MOL      0.126206
     30 H10        -8.1610   -4.3610   -2.7360 hc        1 MOL      0.101372
     31 H11        -6.7810   -5.4550   -2.4800 hc        1 MOL      0.101372
     32 H12        -5.2410   -3.8620   -3.4720 hc        1 MOL     -0.023349
     33 H13        -6.4510   -2.5890   -3.3420 hc        1 MOL     -0.023349
     34 H14        -7.6280   -3.5020   -5.1890 hc        1 MOL      0.022673
     35 H15        -6.7580   -5.0600   -5.1380 hc        1 MOL      0.022673
     36 H16        -5.9800   -3.7170   -6.9500 hx        1 MOL      0.190527
     37 H17        -4.6970   -3.9260   -5.6950 hx        1 MOL      0.190527
     38 H18        -6.3290   -1.5610   -5.8380 hn        1 MOL      0.267407
     39 H19        -4.9450   -1.8640   -5.0750 hn        1 MOL      0.267407
     40 H20        -4.8670   -1.7130   -6.6870 hn        1 MOL      0.267407
     41 N4         -5.3360   -2.7290    0.3360 n         1 MOL     -0.445308
     42 C13        -4.1080   -2.3690    1.0100 c3        1 MOL      0.030564
     43 C14        -4.4250   -1.7910    2.4250 c         1 MOL      0.429101
     44 O6         -5.2750   -0.9200    2.4880 o         1 MOL     -0.443616
     45 C15        -3.3810   -1.4310    0.0240 c3        1 MOL     -0.207085
     46 C16        -1.9840   -1.0430    0.5900 c         1 MOL      0.829981
     47 O7         -1.2320   -0.3970   -0.1460 o         1 MOL     -0.841180
     48 O8         -1.5960   -1.4790    1.6770 o         1 MOL     -0.841180
     49 H21        -6.0800   -2.0880    0.5430 hn        1 MOL      0.378110
     50 H22        -3.4330   -3.2180    1.0690 h1        1 MOL      0.108953
     51 H23        -3.9030   -0.5010   -0.2080 hc        1 MOL      0.087497
     52 H24        -3.2460   -2.0220   -0.8880 hc        1 MOL      0.087497
     53 N5         -3.9040   -2.3280    3.5310 n         1 MOL     -0.315658
     54 C17        -4.1350   -1.9330    4.8840 c3        1 MOL     -0.158553
     55 C18        -3.5850   -0.5670    5.3290 c         1 MOL      0.512945
     56 O9         -3.9700    0.0030    6.3580 o         1 MOL     -0.547183
     57 H25        -3.2330   -3.0890    3.5060 hn        1 MOL      0.295492
     58 H26        -3.5990   -2.7040    5.4280 h1        1 MOL      0.107881
     59 H27        -5.1750   -1.9810    5.2090 h1        1 MOL      0.107881
     60 N6         -2.6950   -0.0110    4.4900 n         1 MOL     -0.301656
     61 C19        -1.9780    1.2940    4.6600 c3        1 MOL      0.022366
     62 C20        -1.5530    1.9660    3.3470 c         1 MOL      0.376995
     63 O10        -1.3340    1.3660    2.3440 o         1 MOL     -0.352272
     64 C21        -0.7860    1.0500    5.5490 c3        1 MOL     -0.388716
     65 C22         0.2580    0.0910    5.1260 c         1 MOL      0.826309
     66 N7          1.3450    0.0060    5.8570 n         1 MOL     -0.813568
     67 O11         0.2390   -0.5580    4.1070 o         1 MOL     -0.671418
     68 H28        -2.5070   -0.5600    3.6660 hn        1 MOL      0.308315
     69 H29        -2.6160    1.9510    5.2490 h1        1 MOL      0.108506
     70 H30        -1.1900    0.7670    6.5230 hc        1 MOL      0.106453
     71 H31        -0.2970    1.9980    5.7700 hc        1 MOL      0.106453
     72 H32         1.2580    0.3470    6.8070 hn        1 MOL      0.364624
     73 H33         2.1110   -0.5830    5.5400 hn        1 MOL      0.364624
     74 N8         -1.7380    3.3010    3.3260 n         1 MOL     -0.292797
     75 C23        -1.8180    4.2450    2.2390 c3        1 MOL     -0.292761
     76 C24        -0.4690    4.1140    1.5250 c         1 MOL      0.613827
     77 O12         0.6150    4.1250    2.0810 o         1 MOL     -0.549209
     78 H34        -1.9140    3.7120    4.2300 hn        1 MOL      0.267382
     79 H35        -1.8500    5.2260    2.7220 h1        1 MOL      0.165461
     80 H36        -2.6250    4.1930    1.5180 h1        1 MOL      0.165461
     81 N9         -0.5530    4.0120    0.1860 n         1 MOL     -0.610312
     82 C25         0.6710    4.0200   -0.6150 c3        1 MOL      0.126309
     83 C26         1.5820    2.7610   -0.5390 c         1 MOL      0.597633
     84 O13         1.0800    1.7360   -0.0080 o         1 MOL     -0.507614
     85 C27         0.1940    4.1580   -2.0860 c3        1 MOL     -0.163258
     86 C28        -0.8610    5.2210   -2.4110 ca        1 MOL     -0.005524
     87 C29        -2.0880    4.7920   -2.9890 ca        1 MOL     -0.113535
     88 C30        -0.7550    6.5620   -2.0600 ca        1 MOL     -0.113535
     89 C31        -3.0350    5.7430   -3.3540 ca        1 MOL     -0.271456
     90 C32        -1.6990    7.5290   -2.3640 ca        1 MOL     -0.271456
     91 C33        -2.8110    7.1030   -3.1160 ca        1 MOL      0.328529
     92 O14        -3.7380    8.0310   -3.5150 oh        1 MOL     -0.435576
     93 H37        -1.4650    3.9070   -0.2440 hn        1 MOL      0.385587
     94 H38         1.2590    4.8980   -0.3390 h1        1 MOL      0.066706
     95 H39        -0.2030    3.1800   -2.3690 hc        1 MOL      0.068860
     96 H40         1.0590    4.4930   -2.6440 hc        1 MOL      0.068860
     97 H41        -2.3140    3.7390   -3.0140 ha        1 MOL      0.121873
     98 H42         0.1390    6.9570   -1.6090 ha        1 MOL      0.121873
     99 H43        -3.8980    5.4890   -3.9600 ha        1 MOL      0.165412
    100 H44        -1.4300    8.5380   -2.0940 ha        1 MOL      0.165412
    101 H45        -3.3590    8.7990   -3.0720 ho        1 MOL      0.330632
    102 N10         2.8220    2.8840   -0.9920 n         1 MOL     -0.727953
    103 C34         3.6070    1.6420   -1.2330 c3        1 MOL      0.296221
    104 C35         4.8950    1.4500   -0.4120 c         1 MOL      0.279671
    105 O15         5.3700    0.3270   -0.3890 o         1 MOL     -0.331716
    106 C36         3.9480    1.4090   -2.7190 c3        1 MOL     -0.026569
    107 C37         4.5440    2.5810   -3.4830 c3        1 MOL      0.226893
    108 C38         2.7110    0.9850   -3.4970 c3        1 MOL     -0.403837
    109 C39         6.0380    2.8540   -3.1670 c3        1 MOL     -0.149933
    110 H46         2.9670    3.6920   -1.5890 hn        1 MOL      0.357738
    111 H47         3.0040    0.8170   -0.8490 h1        1 MOL      0.132795
    112 H48         4.6430    0.5710   -2.7520 hc        1 MOL      0.067536
    113 H49         4.0690    3.5180   -3.2260 hc        1 MOL     -0.048724
    114 H50         4.4970    2.3600   -4.5520 hc        1 MOL     -0.048724
    115 H51         3.0230    0.5280   -4.4400 hc        1 MOL      0.111251
    116 H52         2.2540    0.1880   -2.9250 hc        1 MOL      0.111251
    117 H53         1.9740    1.7730   -3.6750 hc        1 MOL      0.111251
    118 H54         6.2170    3.6280   -3.9010 hc        1 MOL      0.042273
    119 H55         6.2760    3.2250   -2.1700 hc        1 MOL      0.042273
    120 H56         6.6310    1.9800   -3.4530 hc        1 MOL      0.042273
    121 N11         5.4710    2.5730    0.0740 n         1 MOL     -0.285198
    122 C40         6.8010    2.6100    0.7950 c3        1 MOL      0.057562
    123 C41         7.9590    1.7850    0.2080 c         1 MOL      0.162066
    124 O16         8.8030    1.3010    0.9680 o         1 MOL     -0.438681
    125 C42         7.2720    3.9950    0.9870 c3        1 MOL      0.068014
    126 O17         6.1820    4.7030    1.5300 oh        1 MOL     -0.605102
    127 H57         5.0120    3.4690    0.0040 hn        1 MOL      0.263687
    128 H58         6.7460    2.2980    1.8390 h1        1 MOL      0.117247
    129 H59         7.4130    4.5080    0.0280 h1        1 MOL      0.082186
    130 H60         8.0590    4.0610    1.7410 h1        1 MOL      0.082186
    131 H61         6.4310    5.6270    1.5640 ho        1 MOL      0.410385
    132 N12         8.0190    1.6240   -1.1110 n         1 MOL     -0.014693
    133 C43         8.9920    0.6330   -1.7900 c3        1 MOL      0.105250
    134 C44         8.8090   -0.8600   -1.2250 c         1 MOL      0.477259
    135 O18         9.7990   -1.6450   -1.1760 o         1 MOL     -0.524556
    136 C45        10.5030    1.0810   -1.7060 c3        1 MOL     -0.126697
    137 H62         7.2780    2.0550   -1.6450 hn        1 MOL     -0.073054
    138 H63         8.7260    0.5580   -2.8450 h1        1 MOL      0.063923
    139 H64        10.7910    1.0800   -0.6600 hc        1 MOL      0.049449
    140 H65        11.2140    0.4850   -2.2700 hc        1 MOL      0.049449
    141 H66        10.5810    2.0860   -2.1220 hc        1 MOL      0.049449
    142 N13         7.6190   -1.2160   -0.6930 n         1 MOL     -0.610368
    143 C46         7.3140   -2.4370    0.1370 c3        1 MOL      0.606386
    144 C47         6.0650   -3.1700   -0.3790 c         1 MOL      0.588036
    145 O19         5.3450   -2.6100   -1.1890 o         1 MOL     -0.614021
    146 C48         7.1200   -1.9710    1.5710 c3        1 MOL     -0.161148
    147 H67         6.8770   -0.5260   -0.6850 hn        1 MOL      0.212397
    148 H68         8.1320   -3.1540    0.1280 h1        1 MOL     -0.078660
    149 H69         8.0610   -1.7130    2.0480 hc        1 MOL      0.027362
    150 H70         6.3070   -1.2480    1.6400 hc        1 MOL      0.027362
    151 H71         6.8840   -2.9160    2.0480 hc        1 MOL      0.027362
    152 N14         5.8450   -4.4480   -0.0170 n         1 MOL     -0.686023
    153 C49         4.7940   -5.4500   -0.3500 c3        1 MOL     -0.003800
    154 C50         4.7990   -5.9460   -1.7860 c         1 MOL      0.343579
    155 O20         4.1440   -6.8990   -2.1500 o         1 MOL     -0.500450
    156 C51         3.3430   -5.0590    0.1100 c3        1 MOL      0.171296
    157 C52         3.2040   -4.5200    1.5030 c3        1 MOL     -0.206213
    158 C53         1.7680   -4.2350    2.0250 c         1 MOL      0.637335
    159 O21         1.0710   -5.1840    2.3720 o         1 MOL     -0.659444
    160 O22         1.2970   -3.0870    2.0840 o         1 MOL     -0.659444
    161 H72         6.3940   -4.7410    0.7800 hn        1 MOL      0.343116
    162 H73         5.0490   -6.3330    0.2480 h1        1 MOL      0.117499
    163 H74         2.7170   -5.9510    0.0390 hc        1 MOL      0.010124
    164 H75         3.0140   -4.3850   -0.6750 hc        1 MOL      0.010124
    165 H76         3.8190   -3.6200    1.5760 hc        1 MOL      0.000773
    166 H77         3.5870   -5.1370    2.3160 hc        1 MOL      0.000773
    167 N15         5.6120   -5.3010   -2.6300 n         1 MOL     -0.059657
    168 C54         5.8500   -5.4860   -4.0400 c3        1 MOL     -0.254096
    169 H78         6.8510   -5.8940   -4.1880 h1        1 MOL      0.104216
    170 H79         5.1130   -6.1780   -4.4460 h1        1 MOL      0.104216
    171 H80         5.7700   -4.5260   -4.5520 h1        1 MOL      0.104216
    172 H81         6.3100   -4.7580   -2.1470 hn        1 MOL      0.163524
    173 Ca1         0.8390   -0.4130    1.5690 Ca        1 MOL      1.767532
    174 O23         1.7950    1.6900    2.9850 oh        1 MOL     -0.893125
    175 H82         2.7150    1.6580    3.2540 ho        1 MOL      0.425034
    176 H83         1.4610    2.4850    3.3890 ho        1 MOL      0.425034
    177 O24         2.5460   -1.6580   -0.8830 oh        1 MOL     -0.893125
    178 H84         1.8870   -2.1410   -1.3870 ho        1 MOL      0.425034
    179 H85         3.3810   -2.0350   -1.1530 ho        1 MOL      0.425034
    180 O25         3.4840   -0.3350    1.5310 oh        1 MOL     -0.893125
    181 H86         4.1560   -0.5760    0.8960 ho        1 MOL      0.425034
    182 H87         3.9780    0.0080    2.2860 ho        1 MOL      0.425034
@<TRIPOS>BOND
     1    1    2 1   
     2    1    4 1   
     3    1    5 1   
     4    1    6 1   
     5    2    3 2   
     6    2    7 1   
     7    7    8 1   
     8    7   15 1   
     9    8    9 1   
    10    8   11 1   
    11    8   16 1   
    12    9   10 2   
    13    9   19 1   
    14   11   12 1   
    15   11   17 1   
    16   11   18 1   
    17   12   13 1   
    18   12   14 1   
    19   19   20 1   
    20   19   28 1   
    21   20   21 1   
    22   20   23 1   
    23   20   29 1   
    24   21   22 2   
    25   21   41 1   
    26   23   24 1   
    27   23   30 1   
    28   23   31 1   
    29   24   25 1   
    30   24   32 1   
    31   24   33 1   
    32   25   26 1   
    33   25   34 1   
    34   25   35 1   
    35   26   27 1   
    36   26   36 1   
    37   26   37 1   
    38   27   38 1   
    39   27   39 1   
    40   27   40 1   
    41   41   42 1   
    42   41   49 1   
    43   42   43 1   
    44   42   45 1   
    45   42   50 1   
    46   43   44 2   
    47   43   53 1   
    48   45   46 1   
    49   45   51 1   
    50   45   52 1   
    51   46   47 1   
    52   46   48 1   
    53   53   54 1   
    54   53   57 1   
    55   54   55 1   
    56   54   58 1   
    57   54   59 1   
    58   55   56 2   
    59   55   60 1   
    60   60   61 1   
    61   60   68 1   
    62   61   62 1   
    63   61   64 1   
    64   61   69 1   
    65   62   63 2   
    66   62   74 1   
    67   64   65 1   
    68   64   70 1   
    69   64   71 1   
    70   65   66 1   
    71   65   67 2   
    72   66   72 1   
    73   66   73 1   
    74   74   75 1   
    75   74   78 1   
    76   75   76 1   
    77   75   79 1   
    78   75   80 1   
    79   76   77 2   
    80   76   81 1   
    81   81   82 1   
    82   81   93 1   
    83   82   83 1   
    84   82   85 1   
    85   82   94 1   
    86   83   84 2   
    87   83  102 1   
    88   85   86 1   
    89   85   95 1   
    90   85   96 1   
    91   86   87 ar  
    92   86   88 ar  
    93   87   89 ar  
    94   87   97 1   
    95   88   90 ar  
    96   88   98 1   
    97   89   91 ar  
    98   89   99 1   
    99   90   91 ar  
   100   90  100 1   
   101   91   92 1   
   102   92  101 1   
   103  102  103 1   
   104  102  110 1   
   105  103  104 1   
   106  103  106 1   
   107  103  111 1   
   108  104  105 2   
   109  104  121 1   
   110  106  107 1   
   111  106  108 1   
   112  106  112 1   
   113  107  109 1   
   114  107  113 1   
   115  107  114 1   
   116  108  115 1   
   117  108  116 1   
   118  108  117 1   
   119  109  118 1   
   120  109  119 1   
   121  109  120 1   
   122  121  122 1   
   123  121  127 1   
   124  122  123 1   
   125  122  125 1   
   126  122  128 1   
   127  123  124 2   
   128  123  132 1   
   129  125  126 1   
   130  125  129 1   
   131  125  130 1   
   132  126  131 1   
   133  132  133 1   
   134  132  137 1   
   135  133  134 1   
   136  133  136 1   
   137  133  138 1   
   138  134  135 2   
   139  134  142 1   
   140  136  139 1   
   141  136  140 1   
   142  136  141 1   
   143  142  143 1   
   144  142  147 1   
   145  143  144 1   
   146  143  146 1   
   147  143  148 1   
   148  144  145 2   
   149  144  152 1   
   150  146  149 1   
   151  146  150 1   
   152  146  151 1   
   153  152  153 1   
   154  152  161 1   
   155  153  154 1   
   156  153  156 1   
   157  153  162 1   
   158  154  155 2   
   159  154  167 1   
   160  156  157 1   
   161  156  163 1   
   162  156  164 1   
   163  157  158 1   
   164  157  165 1   
   165  157  166 1   
   166  158  159 1   
   167  158  160 1   
   168  167  168 1   
   169  167  172 1   
   170  168  169 1   
   171  168  170 1   
   172  168  171 1   
   173  174  175 1   
   174  174  176 1   
   175  177  178 1   
   176  177  179 1   
   177  180  181 1   
   178  180  182 1   
@<TRIPOS>SUBSTRUCTURE
     1 MOL         1 TEMP              0 ****  ****    0 ROOT
