@<TRIPOS>MOLECULE
MOL
  181   177     1     0     0
SMALL
resp


@<TRIPOS>ATOM
      1 C1          7.0380    1.7920    6.0850 c3        1 MOL     -0.307492
      2 C2          6.2210    1.0400    5.0640 c         1 MOL      0.680335
      3 O1          5.0140    0.7710    5.2250 o         1 MOL     -0.590808
      4 H1          7.6950    1.0950    6.6070 hc        1 MOL      0.075981
      5 H2          7.6400    2.5500    5.5830 hc        1 MOL      0.075981
      6 H3          6.3730    2.2710    6.8030 hc        1 MOL      0.075981
      7 N1          6.7750    0.5940    3.9910 n         1 MOL     -0.473738
      8 C3          8.1560    0.8150    3.4590 c3        1 MOL      0.017739
      9 C4          8.6450   -0.4440    2.7870 c         1 MOL      0.459982
     10 O2          8.1860   -1.5380    3.0730 o         1 MOL     -0.473948
     11 C5          8.3300    1.9790    2.5020 c3        1 MOL     -0.193351
     12 C6          7.3640    2.0630    1.3460 c         1 MOL      0.725305
     13 O3          6.2410    2.6200    1.4560 o         1 MOL     -0.746306
     14 O4          7.7250    1.6580    0.2040 o         1 MOL     -0.746306
     15 H4          6.2110   -0.0170    3.4190 hn        1 MOL      0.335602
     16 H5          8.8400    0.9830    4.2980 h1        1 MOL      0.077701
     17 H6          9.3410    2.1940    2.1690 hc        1 MOL      0.047492
     18 H7          8.1100    2.9210    3.0130 hc        1 MOL      0.047492
     19 N2          9.5940   -0.3800    1.8730 n         1 MOL     -0.499444
     20 C7         10.1910   -1.4270    1.2120 c3        1 MOL      0.537809
     21 C8          9.1760   -2.3750    0.4280 c         1 MOL      0.246800
     22 O5          9.5170   -3.5380    0.1830 o         1 MOL     -0.513331
     23 C9         11.4020   -1.9960    1.9440 c3        1 MOL     -0.354611
     24 H8         10.0030    0.5410    1.8080 hn        1 MOL      0.264276
     25 H9         10.6960   -0.9740    0.3610 h1        1 MOL     -0.038205
     26 H10        11.1110   -2.3530    2.9380 hc        1 MOL      0.075057
     27 H11        11.6830   -2.8400    1.3170 hc        1 MOL      0.075057
     28 H12        12.1670   -1.2270    2.0390 hc        1 MOL      0.075057
     29 N3          7.9720   -1.8470    0.0840 n         1 MOL     -0.109710
     30 C10         6.9200   -2.6870   -0.4750 c3        1 MOL      0.134912
     31 C11         6.4460   -2.1530   -1.8380 c         1 MOL      0.308340
     32 O6          6.3670   -0.9470   -1.9360 o         1 MOL     -0.443777
     33 C12         5.8000   -2.9070    0.5080 c3        1 MOL     -0.141857
     34 C13         5.1350   -1.6030    1.0350 c         1 MOL      0.573889
     35 O7          4.3220   -1.7330    1.9220 o         1 MOL     -0.626020
     36 O8          5.4770   -0.4300    0.7230 o         1 MOL     -0.626020
     37 H13         7.7460   -0.8920    0.3400 hn        1 MOL      0.019974
     38 H14         7.3300   -3.6810   -0.6800 h1        1 MOL      0.014033
     39 H15         6.2440   -3.3760    1.3950 hc        1 MOL      0.058390
     40 H16         5.0450   -3.5590    0.0870 hc        1 MOL      0.058390
     41 N4          6.0730   -2.9880   -2.8520 n         1 MOL     -0.305867
     42 C14         5.5000   -2.3970   -4.0060 c3        1 MOL     -0.208298
     43 C15         4.1300   -1.7620   -3.7570 c         1 MOL      0.468123
     44 O9          3.7190   -0.8200   -4.4720 o         1 MOL     -0.535281
     45 H17         6.2020   -3.9930   -2.7480 hn        1 MOL      0.272488
     46 H18         5.4930   -3.1570   -4.7970 h1        1 MOL      0.127348
     47 H19         6.1750   -1.6260   -4.3580 h1        1 MOL      0.127348
     48 N5          3.4100   -2.3540   -2.8130 n         1 MOL     -0.310569
     49 C16         2.1130   -1.8290   -2.5390 c3        1 MOL     -0.044288
     50 C17         2.0770   -0.3970   -1.9760 c         1 MOL      0.619559
     51 O10         2.9800    0.0630   -1.2800 o         1 MOL     -0.567433
     52 C18         1.5570   -2.8370   -1.4380 c3        1 MOL     -0.167061
     53 C19         1.2880   -4.2370   -1.9570 c         1 MOL      0.668237
     54 N6          0.9580   -5.1690   -1.0910 n         1 MOL     -0.793561
     55 O11         1.4560   -4.5350   -3.0980 o         1 MOL     -0.571130
     56 H20         3.7260   -3.2740   -2.5310 hn        1 MOL      0.284744
     57 H21         1.4860   -1.9340   -3.4150 h1        1 MOL      0.120819
     58 H22         0.5980   -2.4290   -1.1260 hc        1 MOL      0.054397
     59 H23         2.2000   -2.9110   -0.5670 hc        1 MOL      0.054397
     60 H24         0.9250   -4.9100   -0.1100 hn        1 MOL      0.376507
     61 H25         0.8520   -6.1030   -1.4480 hn        1 MOL      0.376507
     62 N7          1.0350    0.3380   -2.3820 n         1 MOL     -0.622837
     63 C20         0.6680    1.7150   -2.0130 c3        1 MOL      0.407349
     64 C21         0.4880    2.6070   -3.2510 c         1 MOL      0.501226
     65 O12         0.8950    2.1610   -4.3510 o         1 MOL     -0.554824
     66 H26         0.4190   -0.1400   -3.0220 hn        1 MOL      0.312540
     67 H27         1.4810    2.1600   -1.4510 h1        1 MOL     -0.005947
     68 H28        -0.2160    1.7570   -1.3850 h1        1 MOL     -0.005947
     69 N8         -0.0730    3.8320   -3.1050 n         1 MOL     -0.524039
     70 C22        -0.4270    4.5830   -1.8730 c3        1 MOL     -0.079815
     71 C23        -1.6580    4.0050   -1.1640 c         1 MOL      0.479762
     72 O13        -2.7000    3.8530   -1.8440 o         1 MOL     -0.486799
     73 C24        -0.4840    6.0800   -2.1720 c3        1 MOL      0.287042
     74 C25        -0.9150    6.9220   -0.9750 c3        1 MOL     -0.297797
     75 O14         0.7520    6.4380   -2.6910 oh        1 MOL     -0.607137
     76 H29        -0.2940    4.2940   -3.9710 hn        1 MOL      0.318506
     77 H30         0.4360    4.5030   -1.2140 h1        1 MOL      0.137899
     78 H31        -1.1480    6.2830   -3.0050 h1        1 MOL      0.032654
     79 H32         0.5180    7.2120   -3.2010 ho        1 MOL      0.381822
     80 H33        -0.6920    6.5930    0.0410 hc        1 MOL      0.088180
     81 H34        -0.6970    7.9680   -1.1860 hc        1 MOL      0.088180
     82 H35        -2.0060    6.8780   -1.0540 hc        1 MOL      0.088180
     83 N9         -1.5620    3.5700    0.1030 n         1 MOL     -0.313653
     84 C26        -2.7330    3.1110    0.8530 c3        1 MOL      0.016464
     85 C27        -3.5310    4.3840    1.3350 c         1 MOL      0.523823
     86 O15        -2.8920    5.2780    1.8800 o         1 MOL     -0.579181
     87 C28        -2.2080    2.1680    2.0160 c3        1 MOL      0.143202
     88 C29        -1.3780    0.9050    1.5310 c3        1 MOL     -0.153038
     89 C30        -3.3680    1.6250    2.8480 c3        1 MOL     -0.366733
     90 C31        -1.9710    0.0740    0.3700 c3        1 MOL      0.035403
     91 H36        -0.6600    3.4920    0.5520 hn        1 MOL      0.188868
     92 H37        -3.3910    2.5220    0.2080 h1        1 MOL      0.082236
     93 H38        -1.4900    2.7080    2.6410 hc        1 MOL      0.019534
     94 H39        -1.2560    0.1840    2.3350 hc        1 MOL      0.034281
     95 H40        -0.4150    1.2800    1.1840 hc        1 MOL      0.034281
     96 H41        -3.9110    0.8310    2.3250 hc        1 MOL      0.092124
     97 H42        -2.9250    1.2930    3.7870 hc        1 MOL      0.092124
     98 H43        -4.0740    2.4110    3.0930 hc        1 MOL      0.092124
     99 H44        -2.1510    0.7550   -0.4620 hc        1 MOL     -0.003081
    100 H45        -1.2870   -0.7440    0.1460 hc        1 MOL     -0.003081
    101 H46        -2.9200   -0.3950    0.6050 hc        1 MOL     -0.003081
    102 N10        -4.7920    4.5370    0.8910 n         1 MOL     -0.333322
    103 C32        -5.6250    3.7110    0.1210 c3        1 MOL      0.026328
    104 C33        -6.4370    2.6500    1.0010 c         1 MOL      0.623669
    105 O16        -6.6330    2.8560    2.1860 o         1 MOL     -0.551429
    106 C34        -6.5730    4.5630   -0.7760 c3        1 MOL     -0.133576
    107 C35        -7.3110    5.7150   -0.0500 c         1 MOL      0.760393
    108 O17        -8.5250    5.6230   -0.0230 o         1 MOL     -0.736786
    109 O18        -6.6700    6.7510    0.2650 o         1 MOL     -0.736786
    110 H47        -5.3040    5.2630    1.3830 hn        1 MOL      0.239357
    111 H48        -5.0050    3.1260   -0.5650 h1        1 MOL      0.016938
    112 H49        -7.2530    3.9200   -1.3350 hc        1 MOL      0.013243
    113 H50        -5.8410    5.0490   -1.4160 hc        1 MOL      0.013243
    114 N11        -7.1080    1.7440    0.3030 n         1 MOL     -0.643639
    115 C36        -7.6390    0.4160    0.6250 c3        1 MOL      0.422764
    116 C37        -7.9040   -0.2990   -0.7180 c         1 MOL      0.250332
    117 O19        -8.2630    0.4140   -1.6610 o         1 MOL     -0.503672
    118 C38        -8.9620    0.5110    1.4550 c3        1 MOL     -0.224285
    119 C39        -9.4560   -0.8820    1.8910 ca        1 MOL      0.075043
    120 C40       -10.2040   -1.7310    1.0210 ca        1 MOL     -0.196014
    121 C41        -8.9460   -1.4470    3.1000 ca        1 MOL     -0.196014
    122 C42       -10.5610   -3.0690    1.4230 ca        1 MOL     -0.076312
    123 C43        -9.2710   -2.7730    3.4530 ca        1 MOL     -0.076312
    124 C44       -10.0880   -3.5670    2.6760 ca        1 MOL     -0.171965
    125 H51        -7.1570    1.8450   -0.7000 hn        1 MOL      0.316425
    126 H52        -6.7680    0.0720    1.1680 h1        1 MOL     -0.018249
    127 H53        -9.6130    1.0370    0.7640 hc        1 MOL      0.100379
    128 H54        -8.8070    1.0250    2.4080 hc        1 MOL      0.100379
    129 H55       -10.4630   -1.4320    0.0210 ha        1 MOL      0.132847
    130 H56        -8.2610   -0.8660    3.7090 ha        1 MOL      0.132847
    131 H57       -11.2100   -3.6800    0.8160 ha        1 MOL      0.096868
    132 H58        -8.8910   -3.1750    4.3760 ha        1 MOL      0.096868
    133 H59       -10.3290   -4.5700    3.0010 ha        1 MOL      0.111340
    134 N12        -7.6360   -1.6210   -0.8330 n         1 MOL      0.070315
    135 C45        -7.0980   -2.5350    0.1560 c3        1 MOL      0.007484
    136 C46        -5.5790   -2.4140    0.2460 c         1 MOL      0.612563
    137 O20        -5.0520   -1.3360    0.1170 o         1 MOL     -0.609871
    138 C47        -7.5410   -3.9190   -0.3300 c3        1 MOL     -0.160962
    139 C48        -7.4050   -3.8090   -1.8300 c3        1 MOL      0.128810
    140 C49        -7.9430   -2.4130   -2.0690 c3        1 MOL      0.006996
    141 H60        -7.4550   -2.3930    1.1730 h1        1 MOL     -0.005674
    142 H61        -6.9850   -4.7630    0.1030 hc        1 MOL      0.030274
    143 H62        -8.5940   -4.0490   -0.0950 hc        1 MOL      0.030274
    144 H63        -6.3670   -3.8630   -2.1770 hc        1 MOL     -0.001310
    145 H64        -8.0020   -4.5640   -2.3230 hc        1 MOL     -0.001310
    146 H65        -7.4560   -2.0380   -2.9600 h1        1 MOL      0.010954
    147 H66        -9.0220   -2.3750   -2.1830 h1        1 MOL      0.010954
    148 N13        -4.8000   -3.5020    0.4330 n         1 MOL     -0.474370
    149 C50        -3.3020   -3.4270    0.6330 c3        1 MOL      0.206033
    150 C51        -2.7590   -4.3970    1.7400 c         1 MOL      0.311502
    151 O21        -1.8340   -5.1500    1.5090 o         1 MOL     -0.502826
    152 C52        -2.5640   -3.3840   -0.7250 c3        1 MOL      0.089370
    153 C53        -2.5100   -4.6300   -1.5910 c3        1 MOL     -0.097448
    154 C54        -3.8650   -5.2450   -1.9540 c         1 MOL      0.624973
    155 O22        -4.3440   -6.1360   -1.1560 o         1 MOL     -0.703655
    156 O23        -4.4500   -4.9660   -3.0700 o         1 MOL     -0.703655
    157 H67        -5.1860   -4.4340    0.5210 hn        1 MOL      0.288645
    158 H68        -3.1560   -2.4460    1.0730 h1        1 MOL      0.096550
    159 H69        -1.5260   -3.1170   -0.5090 hc        1 MOL     -0.026131
    160 H70        -2.8270   -2.4790   -1.2590 hc        1 MOL     -0.026131
    161 H71        -1.8780   -5.4220   -1.1830 hc        1 MOL      0.016428
    162 H72        -2.0040   -4.3330   -2.5180 hc        1 MOL      0.016428
    163 N14        -3.3710   -4.4710    2.9660 n         1 MOL     -0.319072
    164 C55        -4.3190   -3.5810    3.6510 c3        1 MOL     -0.110370
    165 H73        -3.9290   -3.3240    4.6360 h1        1 MOL      0.065932
    166 H74        -4.4540   -2.6710    3.0660 h1        1 MOL      0.065932
    167 H75        -5.2780   -4.0870    3.7620 h1        1 MOL      0.065932
    168 H76        -2.9470   -5.1370    3.5970 hn        1 MOL      0.270143
    169 Ca1         5.2910    1.5430   -0.8800 Ca        1 MOL      1.773196
    170 O24         3.5580    2.2490    1.1690 oh        1 MOL     -0.863859
    171 H77         3.5220    1.6390    1.9120 ho        1 MOL      0.421648
    172 H78         4.2100    2.8870    1.4280 ho        1 MOL      0.421648
    173 O25         4.3530    1.7820   -3.4570 oh        1 MOL     -0.863859
    174 H79         4.1750    1.1020   -4.1140 ho        1 MOL      0.421648
    175 H80         4.4900    2.5810   -3.9630 ho        1 MOL      0.421648
    176 O26         4.4300    4.0200   -1.0220 oh        1 MOL     -0.863859
    177 H81         3.8600    4.5510   -1.5960 ho        1 MOL      0.421648
    178 H82         4.8850    4.6710   -0.4840 ho        1 MOL      0.421648
    179 O27         7.1740    2.5510   -2.5060 oh        1 MOL     -0.863859
    180 H83         7.5190    3.3810   -2.1730 ho        1 MOL      0.421648
    181 H84         7.8620    2.2220   -3.0810 ho        1 MOL      0.421648
@<TRIPOS>BOND
     1    1    2 1   
     2    1    4 1   
     3    1    5 1   
     4    1    6 1   
     5    2    3 2   
     6    2    7 1   
     7    7    8 1   
     8    7   15 1   
     9    8    9 1   
    10    8   11 1   
    11    8   16 1   
    12    9   10 2   
    13    9   19 1   
    14   11   12 1   
    15   11   17 1   
    16   11   18 1   
    17   12   13 1   
    18   12   14 1   
    19   19   20 1   
    20   19   24 1   
    21   20   21 1   
    22   20   23 1   
    23   20   25 1   
    24   21   22 2   
    25   21   29 1   
    26   23   26 1   
    27   23   27 1   
    28   23   28 1   
    29   29   30 1   
    30   29   37 1   
    31   30   31 1   
    32   30   33 1   
    33   30   38 1   
    34   31   32 2   
    35   31   41 1   
    36   33   34 1   
    37   33   39 1   
    38   33   40 1   
    39   34   35 1   
    40   34   36 1   
    41   41   42 1   
    42   41   45 1   
    43   42   43 1   
    44   42   46 1   
    45   42   47 1   
    46   43   44 2   
    47   43   48 1   
    48   48   49 1   
    49   48   56 1   
    50   49   50 1   
    51   49   52 1   
    52   49   57 1   
    53   50   51 2   
    54   50   62 1   
    55   52   53 1   
    56   52   58 1   
    57   52   59 1   
    58   53   54 1   
    59   53   55 2   
    60   54   60 1   
    61   54   61 1   
    62   62   63 1   
    63   62   66 1   
    64   63   64 1   
    65   63   67 1   
    66   63   68 1   
    67   64   65 2   
    68   64   69 1   
    69   69   70 1   
    70   69   76 1   
    71   70   71 1   
    72   70   73 1   
    73   70   77 1   
    74   71   72 2   
    75   71   83 1   
    76   73   74 1   
    77   73   75 1   
    78   73   78 1   
    79   74   80 1   
    80   74   81 1   
    81   74   82 1   
    82   75   79 1   
    83   83   84 1   
    84   83   91 1   
    85   84   85 1   
    86   84   87 1   
    87   84   92 1   
    88   85   86 2   
    89   85  102 1   
    90   87   88 1   
    91   87   89 1   
    92   87   93 1   
    93   88   90 1   
    94   88   94 1   
    95   88   95 1   
    96   89   96 1   
    97   89   97 1   
    98   89   98 1   
    99   90   99 1   
   100   90  100 1   
   101   90  101 1   
   102  102  103 1   
   103  102  110 1   
   104  103  104 1   
   105  103  106 1   
   106  103  111 1   
   107  104  105 2   
   108  104  114 1   
   109  106  107 1   
   110  106  112 1   
   111  106  113 1   
   112  107  108 1   
   113  107  109 1   
   114  114  115 1   
   115  114  125 1   
   116  115  116 1   
   117  115  118 1   
   118  115  126 1   
   119  116  117 2   
   120  116  134 1   
   121  118  119 1   
   122  118  127 1   
   123  118  128 1   
   124  119  120 ar  
   125  119  121 ar  
   126  120  122 ar  
   127  120  129 1   
   128  121  123 ar  
   129  121  130 1   
   130  122  124 ar  
   131  122  131 1   
   132  123  124 ar  
   133  123  132 1   
   134  124  133 1   
   135  134  135 1   
   136  134  140 1   
   137  135  136 1   
   138  135  138 1   
   139  135  141 1   
   140  136  137 2   
   141  136  148 1   
   142  138  139 1   
   143  138  142 1   
   144  138  143 1   
   145  139  140 1   
   146  139  144 1   
   147  139  145 1   
   148  140  146 1   
   149  140  147 1   
   150  148  149 1   
   151  148  157 1   
   152  149  150 1   
   153  149  152 1   
   154  149  158 1   
   155  150  151 2   
   156  150  163 1   
   157  152  153 1   
   158  152  159 1   
   159  152  160 1   
   160  153  154 1   
   161  153  161 1   
   162  153  162 1   
   163  154  155 1   
   164  154  156 1   
   165  163  164 1   
   166  163  168 1   
   167  164  165 1   
   168  164  166 1   
   169  164  167 1   
   170  170  171 1   
   171  170  172 1   
   172  173  174 1   
   173  173  175 1   
   174  176  177 1   
   175  176  178 1   
   176  179  180 1   
   177  179  181 1   
@<TRIPOS>SUBSTRUCTURE
     1 MOL         1 TEMP              0 ****  ****    0 ROOT
