@<TRIPOS>MOLECULE
MOL
  189   185     1     0     0
SMALL
resp


@<TRIPOS>ATOM
      1 C1          4.1790    4.1110   -3.6920 c3        1 MOL     -0.369975
      2 C2          4.8490    3.3870   -2.5170 c         1 MOL      0.814498
      3 O1          4.3100    3.1290   -1.4100 o         1 MOL     -0.657410
      4 H1          4.3440    3.5450   -4.6090 hc        1 MOL      0.093234
      5 H2          3.1080    4.1940   -3.5050 hc        1 MOL      0.093234
      6 H3          4.6080    5.1070   -3.7990 hc        1 MOL      0.093234
      7 N1          6.0590    2.9570   -2.8270 n         1 MOL     -0.760912
      8 C3          6.7270    1.8460   -2.1110 c3        1 MOL      0.551451
      9 C4          5.7400    0.7050   -1.8640 c         1 MOL      0.212042
     10 O2          5.2870    0.4350   -0.7420 o         1 MOL     -0.530411
     11 C5          7.6850    2.2490   -1.0470 c3        1 MOL     -0.387484
     12 C6          7.0990    3.1330    0.0830 c         1 MOL      0.871866
     13 O3          6.4230    2.6180    0.9950 o         1 MOL     -0.772968
     14 O4          7.3930    4.3980    0.0900 o         1 MOL     -0.772968
     15 H4          6.3610    3.1610   -3.7700 hn        1 MOL      0.341179
     16 H5          7.3690    1.5010   -2.9270 h1        1 MOL     -0.031486
     17 H6          8.5320    2.7700   -1.4940 hc        1 MOL      0.078113
     18 H7          7.9820    1.3360   -0.5190 hc        1 MOL      0.078113
     19 N2          5.4470   -0.0530   -2.9070 n         1 MOL     -0.345275
     20 C7          4.7170   -1.3000   -3.0170 c3        1 MOL      0.024474
     21 C8          5.1480   -2.5990   -2.2440 c         1 MOL      0.272959
     22 O5          5.0090   -3.7490   -2.7160 o         1 MOL     -0.537645
     23 C9          3.1470   -1.1180   -2.8560 c3        1 MOL      0.214896
     24 C10         2.2170   -2.3180   -3.1230 c3        1 MOL      0.027858
     25 C11         2.6890   -0.0320   -3.7960 c3        1 MOL     -0.467808
     26 C12         2.3750   -2.9990   -4.4880 c3        1 MOL     -0.155626
     27 H8          5.7430    0.2640   -3.8160 hn        1 MOL      0.254030
     28 H9          4.7610   -1.5830   -4.0630 h1        1 MOL      0.066772
     29 H10         3.1140   -0.7640   -1.8230 hc        1 MOL     -0.042593
     30 H11         1.1580   -2.0910   -3.0300 hc        1 MOL      0.066935
     31 H12         2.4140   -3.0100   -2.3030 hc        1 MOL      0.066935
     32 H13         3.0540   -0.1440   -4.8220 hc        1 MOL      0.092993
     33 H14         1.6070    0.0540   -3.6780 hc        1 MOL      0.092993
     34 H15         3.0560    0.9660   -3.5330 hc        1 MOL      0.092993
     35 H16         3.3810   -2.8890   -4.8800 hc        1 MOL      0.016220
     36 H17         2.1300   -4.0580   -4.5040 hc        1 MOL      0.016220
     37 H18         1.6930   -2.4490   -5.1490 hc        1 MOL      0.016220
     38 N3          5.5870   -2.4290   -1.0480 n         1 MOL     -0.011373
     39 C13         6.3010   -3.4360   -0.2400 c3        1 MOL     -0.013890
     40 C14         5.4650   -4.6850    0.0360 c         1 MOL      0.616107
     41 O6          6.0010   -5.7300   -0.1530 o         1 MOL     -0.597963
     42 C15         6.9840   -2.8130    0.9940 c3        1 MOL     -0.133202
     43 C16         7.9640   -1.6670    0.8420 c         1 MOL      0.763013
     44 O7          8.5270   -1.2710    1.9060 o         1 MOL     -0.733977
     45 O8          8.3300   -1.3300   -0.2880 o         1 MOL     -0.733977
     46 H19         5.7410   -1.4780   -0.7290 hn        1 MOL      0.186010
     47 H20         7.1040   -3.7060   -0.9330 h1        1 MOL      0.047975
     48 H21         7.4960   -3.5720    1.5820 hc        1 MOL      0.022970
     49 H22         6.2080   -2.4550    1.6790 hc        1 MOL      0.022970
     50 N4          4.2260   -4.6560    0.5180 n         1 MOL     -0.475514
     51 C17         3.5460   -3.5980    1.2570 c3        1 MOL     -0.043891
     52 C18         2.2750   -4.0590    2.0330 c         1 MOL      0.647997
     53 O9          1.7770   -5.1890    1.8250 o         1 MOL     -0.615081
     54 H23         3.6470   -5.4860    0.4910 hn        1 MOL      0.275866
     55 H24         3.2670   -2.7580    0.6260 h1        1 MOL      0.065535
     56 H25         4.2000   -3.2200    2.0420 h1        1 MOL      0.065535
     57 N5          1.6730   -3.2870    2.8900 n         1 MOL     -0.555889
     58 C19         1.9230   -1.8780    3.2670 c3        1 MOL      0.612004
     59 C20         2.0750   -0.9850    2.0570 c         1 MOL      0.267179
     60 O10         3.1660   -0.4210    1.7900 o         1 MOL     -0.568554
     61 C21         3.0970   -1.7510    4.2530 c3        1 MOL     -0.451525
     62 C22         2.9540   -2.5370    5.5490 c         1 MOL      0.712564
     63 O11         1.9030   -3.1820    5.7110 o         1 MOL     -0.722644
     64 O12         3.8230   -2.3050    6.4490 o         1 MOL     -0.722644
     65 H26         0.8090   -3.7430    3.1830 hn        1 MOL      0.269764
     66 H27         1.1070   -1.4310    3.8350 h1        1 MOL     -0.037579
     67 H28         2.9820   -0.7160    4.5820 hc        1 MOL      0.092658
     68 H29         4.0210   -1.8630    3.7010 hc        1 MOL      0.092658
     69 N6          1.0630   -0.8480    1.1830 n         1 MOL     -0.149008
     70 C23        -0.3190   -1.1700    1.2540 c3        1 MOL     -0.149806
     71 C24        -0.5860   -2.3580    0.2780 c         1 MOL      0.592907
     72 O13         0.2530   -2.6720   -0.6220 o         1 MOL     -0.579171
     73 H30         1.3280   -0.2860    0.3870 hn        1 MOL      0.168150
     74 H31        -0.9190   -0.3260    0.8970 h1        1 MOL      0.058891
     75 H32        -0.5330   -1.5530    2.2490 h1        1 MOL      0.058891
     76 N7         -1.6230   -3.1430    0.5370 n         1 MOL     -0.346819
     77 C25        -1.9860   -4.3040   -0.1280 c3        1 MOL     -0.225451
     78 C26        -2.7050   -4.1280   -1.4260 c         1 MOL      0.539875
     79 O14        -2.9760   -5.1530   -2.0260 o         1 MOL     -0.572809
     80 C27        -2.5960   -5.2460    0.9470 c3        1 MOL      0.112783
     81 C28        -3.7330   -4.7060    1.8180 c3        1 MOL     -0.223473
     82 C29        -4.8820   -4.3040    0.8910 c         1 MOL      0.414772
     83 N8         -5.6100   -5.2500    0.3970 n         1 MOL     -0.610538
     84 O15        -4.9970   -3.0850    0.5920 o         1 MOL     -0.477855
     85 H33        -2.1730   -2.8970    1.3520 hn        1 MOL      0.254095
     86 H34        -1.0530   -4.7800   -0.4410 h1        1 MOL      0.191973
     87 H35        -1.7940   -5.5430    1.6190 hc        1 MOL      0.025490
     88 H36        -2.8620   -6.2500    0.5960 hc        1 MOL      0.025490
     89 H37        -3.5230   -3.7600    2.3350 hc        1 MOL      0.085700
     90 H38        -4.0280   -5.4860    2.5090 hc        1 MOL      0.085700
     91 H39        -5.4550   -6.1500    0.8230 hn        1 MOL      0.341389
     92 H40        -6.3150   -4.9580   -0.2590 hn        1 MOL      0.341389
     93 N9         -2.9520   -2.9360   -1.8450 n         1 MOL     -0.212810
     94 C30        -3.5880   -2.4900   -3.1430 c3        1 MOL     -0.116944
     95 C31        -5.0190   -1.8810   -3.1870 c         1 MOL      0.360112
     96 O16        -5.5530   -1.5290   -4.2250 o         1 MOL     -0.514485
     97 C32        -2.6390   -1.6910   -3.9700 c3        1 MOL      0.319544
     98 C33        -1.4250   -2.5040   -4.3760 c3        1 MOL     -0.272013
     99 C34        -2.3440   -0.4070   -3.1990 c3        1 MOL     -0.272013
    100 H41        -2.7600   -2.1950   -1.1940 hn        1 MOL      0.128916
    101 H42        -3.7580   -3.4080   -3.6980 h1        1 MOL      0.101813
    102 H43        -3.0750   -1.4170   -4.9350 hc        1 MOL     -0.024627
    103 H44        -0.7580   -1.7640   -4.8210 hc        1 MOL      0.060290
    104 H45        -0.8850   -3.1170   -3.6510 hc        1 MOL      0.060290
    105 H46        -1.8030   -3.1920   -5.1360 hc        1 MOL      0.060290
    106 H47        -1.6540    0.2810   -3.6980 hc        1 MOL      0.060290
    107 H48        -3.2710    0.0810   -2.9190 hc        1 MOL      0.060290
    108 H49        -1.8000   -0.6700   -2.2880 hc        1 MOL      0.060290
    109 N10        -5.6420   -1.6900   -1.9970 n         1 MOL     -0.068030
    110 C35        -6.9960   -1.0660   -1.8290 c3        1 MOL     -0.165600
    111 C36        -7.0130    0.3690   -1.1640 c         1 MOL      0.573119
    112 O17        -8.0750    1.0240   -1.2240 o         1 MOL     -0.543509
    113 C37        -7.9200   -1.9470   -0.9140 c3        1 MOL     -0.190714
    114 C38        -8.1040   -3.3450   -1.5160 c         1 MOL      0.602491
    115 N11        -8.5400   -3.3850   -2.7720 n         1 MOL     -0.726504
    116 O18        -7.9050   -4.3480   -0.8970 o         1 MOL     -0.534586
    117 H50        -5.2510   -1.9920   -1.1150 hn        1 MOL      0.196489
    118 H51        -7.4740   -1.0480   -2.8060 h1        1 MOL      0.111698
    119 H52        -8.9120   -1.5420   -0.6800 hc        1 MOL      0.078680
    120 H53        -7.4300   -2.0480    0.0570 hc        1 MOL      0.078680
    121 H54        -8.7790   -2.5720   -3.3240 hn        1 MOL      0.349785
    122 H55        -8.8090   -4.2940   -3.1260 hn        1 MOL      0.349785
    123 N12        -5.9130    0.8840   -0.5490 n         1 MOL     -0.507536
    124 C39        -5.8580    2.0970    0.2760 c3        1 MOL      0.309844
    125 C40        -4.4750    2.7370    0.4100 c         1 MOL      0.308406
    126 O19        -3.4330    2.0620    0.4550 o         1 MOL     -0.405548
    127 C41        -6.5180    1.8690    1.5810 c3        1 MOL     -0.057463
    128 C42        -5.8510    0.9110    2.4650 ca        1 MOL     -0.063047
    129 C43        -4.6660    1.2560    3.1900 ca        1 MOL     -0.078810
    130 C44        -6.2480   -0.4300    2.4470 ca        1 MOL     -0.078810
    131 C45        -3.9700    0.2870    3.9790 ca        1 MOL     -0.342667
    132 C46        -5.5660   -1.4430    3.2170 ca        1 MOL     -0.342667
    133 C47        -4.4080   -1.0730    3.9300 ca        1 MOL      0.397625
    134 O20        -3.6340   -2.0500    4.6290 oh        1 MOL     -0.589263
    135 H56        -5.0710    0.3180   -0.4730 hn        1 MOL      0.256746
    136 H57        -6.4800    2.8930   -0.1380 h1        1 MOL     -0.019757
    137 H58        -7.5120    1.4790    1.3450 hc        1 MOL      0.041822
    138 H59        -6.7500    2.7900    2.1200 hc        1 MOL      0.041822
    139 H60        -4.3180    2.2790    3.2370 ha        1 MOL      0.135502
    140 H61        -7.1070   -0.7300    1.8660 ha        1 MOL      0.135502
    141 H62        -3.0180    0.5510    4.4200 ha        1 MOL      0.180806
    142 H63        -5.9220   -2.4650    3.1980 ha        1 MOL      0.180806
    143 H64        -3.0100   -1.5920    5.1870 ho        1 MOL      0.425558
    144 N13        -4.4900    4.0820    0.5680 n         1 MOL     -0.467806
    145 C48        -3.3610    4.9620    0.8650 c3        1 MOL      0.026700
    146 C49        -2.1550    5.0750   -0.0810 c         1 MOL      0.642145
    147 O21        -1.5020    6.0910   -0.1640 o         1 MOL     -0.564004
    148 C50        -3.0170    4.9660    2.3670 c3        1 MOL     -0.195801
    149 C51        -3.9310    5.7370    3.2770 c3        1 MOL     -0.069289
    150 C52        -3.3070    6.1630    4.6080 c         1 MOL      0.672600
    151 O22        -3.4510    5.4090    5.6100 o         1 MOL     -0.722209
    152 O23        -2.6560    7.1880    4.6070 o         1 MOL     -0.722209
    153 H65        -5.3640    4.5700    0.5100 hn        1 MOL      0.313840
    154 H66        -3.7760    5.9680    0.7480 h1        1 MOL      0.083245
    155 H67        -2.0650    5.4770    2.5200 hc        1 MOL      0.111438
    156 H68        -2.9860    3.9570    2.7700 hc        1 MOL      0.111438
    157 H69        -4.8600    5.2060    3.4790 hc        1 MOL     -0.025035
    158 H70        -4.3070    6.6170    2.7530 hc        1 MOL     -0.025035
    159 N14        -1.9570    4.1120   -1.0070 n         1 MOL     -0.602416
    160 C53        -0.9600    4.2770   -2.0400 c3        1 MOL      0.055759
    161 C54        -1.3480    5.3240   -3.1230 c         1 MOL      0.373964
    162 O24        -0.6090    5.5310   -4.1380 o         1 MOL     -0.553695
    163 C55        -0.5790    2.9230   -2.6710 c3        1 MOL     -0.077648
    164 C56        -0.2050    1.7380   -1.6780 c3        1 MOL      0.475135
    165 C57         1.0150    2.0570   -0.7470 c         1 MOL      0.461089
    166 O25         0.8530    2.8780    0.1890 o         1 MOL     -0.646059
    167 O26         2.0930    1.4420   -0.8840 o         1 MOL     -0.646059
    168 H71        -2.5850    3.3190   -1.0270 hn        1 MOL      0.299852
    169 H72        -0.0270    4.6230   -1.5640 h1        1 MOL      0.141066
    170 H73         0.3130    3.1250   -3.2570 hc        1 MOL      0.000868
    171 H74        -1.3780    2.6540   -3.3620 hc        1 MOL      0.000868
    172 H75         0.0210    0.8350   -2.2540 hc        1 MOL     -0.114634
    173 H76        -1.1240    1.5340   -1.1440 hc        1 MOL     -0.114634
    174 N15        -2.4690    5.9530   -2.9840 n         1 MOL     -0.094866
    175 C58        -3.0320    6.8190   -4.0210 c3        1 MOL     -0.169657
    176 H77        -3.6420    6.2230   -4.7010 h1        1 MOL      0.076255
    177 H78        -3.6510    7.5870   -3.5580 h1        1 MOL      0.076255
    178 H79        -2.2230    7.2910   -4.5800 h1        1 MOL      0.076255
    179 H80        -2.9640    5.7890   -2.1160 hn        1 MOL      0.161498
    180 Ca1         3.8070    2.0150    0.9800 Ca        1 MOL      1.829224
    181 O27         4.3290    4.4900    1.3790 oh        1 MOL     -0.896771
    182 H81         4.4400    4.8850    2.2460 ho        1 MOL      0.431570
    183 H82         4.6790    5.1440    0.7750 ho        1 MOL      0.431570
    184 O28         2.1320    2.5900    3.1230 oh        1 MOL     -0.896771
    185 H83         2.0250    2.2820    4.0270 ho        1 MOL      0.431570
    186 H84         1.7160    3.4520    3.1200 ho        1 MOL      0.431570
    187 O29         5.1100    1.2580    3.3040 oh        1 MOL     -0.896771
    188 H85         6.0400    1.4790    3.4040 ho        1 MOL      0.431570
    189 H86         4.9030    0.7490    4.0940 ho        1 MOL      0.431570
@<TRIPOS>BOND
     1    1    2 1   
     2    1    4 1   
     3    1    5 1   
     4    1    6 1   
     5    2    3 2   
     6    2    7 1   
     7    7    8 1   
     8    7   15 1   
     9    8    9 1   
    10    8   11 1   
    11    8   16 1   
    12    9   10 2   
    13    9   19 1   
    14   11   12 1   
    15   11   17 1   
    16   11   18 1   
    17   12   13 1   
    18   12   14 1   
    19   19   20 1   
    20   19   27 1   
    21   20   21 1   
    22   20   23 1   
    23   20   28 1   
    24   21   22 2   
    25   21   38 1   
    26   23   24 1   
    27   23   25 1   
    28   23   29 1   
    29   24   26 1   
    30   24   30 1   
    31   24   31 1   
    32   25   32 1   
    33   25   33 1   
    34   25   34 1   
    35   26   35 1   
    36   26   36 1   
    37   26   37 1   
    38   38   39 1   
    39   38   46 1   
    40   39   40 1   
    41   39   42 1   
    42   39   47 1   
    43   40   41 2   
    44   40   50 1   
    45   42   43 1   
    46   42   48 1   
    47   42   49 1   
    48   43   44 1   
    49   43   45 1   
    50   50   51 1   
    51   50   54 1   
    52   51   52 1   
    53   51   55 1   
    54   51   56 1   
    55   52   53 2   
    56   52   57 1   
    57   57   58 1   
    58   57   65 1   
    59   58   59 1   
    60   58   61 1   
    61   58   66 1   
    62   59   60 2   
    63   59   69 1   
    64   61   62 1   
    65   61   67 1   
    66   61   68 1   
    67   62   63 1   
    68   62   64 1   
    69   69   70 1   
    70   69   73 1   
    71   70   71 1   
    72   70   74 1   
    73   70   75 1   
    74   71   72 2   
    75   71   76 1   
    76   76   77 1   
    77   76   85 1   
    78   77   78 1   
    79   77   80 1   
    80   77   86 1   
    81   78   79 2   
    82   78   93 1   
    83   80   81 1   
    84   80   87 1   
    85   80   88 1   
    86   81   82 1   
    87   81   89 1   
    88   81   90 1   
    89   82   83 1   
    90   82   84 2   
    91   83   91 1   
    92   83   92 1   
    93   93   94 1   
    94   93  100 1   
    95   94   95 1   
    96   94   97 1   
    97   94  101 1   
    98   95   96 2   
    99   95  109 1   
   100   97   98 1   
   101   97   99 1   
   102   97  102 1   
   103   98  103 1   
   104   98  104 1   
   105   98  105 1   
   106   99  106 1   
   107   99  107 1   
   108   99  108 1   
   109  109  110 1   
   110  109  117 1   
   111  110  111 1   
   112  110  113 1   
   113  110  118 1   
   114  111  112 2   
   115  111  123 1   
   116  113  114 1   
   117  113  119 1   
   118  113  120 1   
   119  114  115 1   
   120  114  116 2   
   121  115  121 1   
   122  115  122 1   
   123  123  124 1   
   124  123  135 1   
   125  124  125 1   
   126  124  127 1   
   127  124  136 1   
   128  125  126 2   
   129  125  144 1   
   130  127  128 1   
   131  127  137 1   
   132  127  138 1   
   133  128  129 ar  
   134  128  130 ar  
   135  129  131 ar  
   136  129  139 1   
   137  130  132 ar  
   138  130  140 1   
   139  131  133 ar  
   140  131  141 1   
   141  132  133 ar  
   142  132  142 1   
   143  133  134 1   
   144  134  143 1   
   145  144  145 1   
   146  144  153 1   
   147  145  146 1   
   148  145  148 1   
   149  145  154 1   
   150  146  147 2   
   151  146  159 1   
   152  148  149 1   
   153  148  155 1   
   154  148  156 1   
   155  149  150 1   
   156  149  157 1   
   157  149  158 1   
   158  150  151 1   
   159  150  152 1   
   160  159  160 1   
   161  159  168 1   
   162  160  161 1   
   163  160  163 1   
   164  160  169 1   
   165  161  162 2   
   166  161  174 1   
   167  163  164 1   
   168  163  170 1   
   169  163  171 1   
   170  164  165 1   
   171  164  172 1   
   172  164  173 1   
   173  165  166 1   
   174  165  167 1   
   175  174  175 1   
   176  174  179 1   
   177  175  176 1   
   178  175  177 1   
   179  175  178 1   
   180  181  182 1   
   181  181  183 1   
   182  184  185 1   
   183  184  186 1   
   184  187  188 1   
   185  187  189 1   
@<TRIPOS>SUBSTRUCTURE
     1 MOL         1 TEMP              0 ****  ****    0 ROOT
