@<TRIPOS>MOLECULE
MOL
  184   179     1     0     0
SMALL
resp


@<TRIPOS>ATOM
      1 C1         -5.2580   -0.2550   -3.2850 c3        1 MOL     -0.311704
      2 C2         -6.2920    0.7750   -2.7380 c         1 MOL      0.582070
      3 O1         -6.0860    1.9890   -2.7010 o         1 MOL     -0.573758
      4 H1         -4.8670    0.0960   -4.2400 hc        1 MOL      0.082532
      5 H2         -4.4390   -0.3610   -2.5740 hc        1 MOL      0.082532
      6 H3         -5.7450   -1.2210   -3.4250 hc        1 MOL      0.082532
      7 N1         -7.4630    0.2130   -2.4090 n         1 MOL     -0.467744
      8 C3         -8.7640    0.8260   -2.1170 c3        1 MOL      0.307141
      9 C4         -9.0070    1.1550   -0.5610 c         1 MOL      0.415327
     10 O2         -9.8880    0.6840    0.1670 o         1 MOL     -0.508215
     11 C5         -9.8340   -0.1610   -2.5860 c3        1 MOL     -0.298892
     12 C6         -9.7420   -1.7160   -2.1420 c         1 MOL      0.746164
     13 O3        -10.8040   -2.2410   -1.6920 o         1 MOL     -0.717719
     14 O4         -8.7070   -2.3330   -2.2330 o         1 MOL     -0.717719
     15 H4         -7.4530   -0.7940   -2.5180 hn        1 MOL      0.281843
     16 H5         -8.9720    1.6970   -2.7380 h1        1 MOL     -0.006118
     17 H6         -9.7560   -0.2480   -3.6730 hc        1 MOL      0.023311
     18 H7        -10.7980    0.2970   -2.3720 hc        1 MOL      0.023311
     19 N2         -7.9280    1.6430   -0.0400 n         1 MOL     -0.460410
     20 C7         -7.6510    1.7700    1.3400 c3        1 MOL      0.484394
     21 C8         -6.1330    1.4810    1.5740 c         1 MOL      0.465942
     22 O5         -5.3940    1.5010    0.5790 o         1 MOL     -0.446796
     23 C9         -8.0160    3.2010    1.7630 c3        1 MOL     -0.293063
     24 H8         -7.1050    1.5880   -0.6340 hn        1 MOL      0.135009
     25 H9         -8.2370    1.0440    1.8960 h1        1 MOL     -0.033609
     26 H10        -7.5580    3.9910    1.1670 hc        1 MOL      0.056829
     27 H11        -9.1000    3.3150    1.7330 hc        1 MOL      0.056829
     28 H12        -7.6950    3.3010    2.8040 hc        1 MOL      0.056829
     29 N3         -5.6420    1.3250    2.8100 n         1 MOL     -0.580116
     30 C10        -4.2730    0.7450    3.0740 c3        1 MOL     -0.158674
     31 C11        -3.6490    1.4900    4.3340 c         1 MOL      0.614171
     32 O6         -4.2860    1.7330    5.4030 o         1 MOL     -0.536441
     33 C12        -4.4340   -0.7440    3.4500 c3        1 MOL      0.002875
     34 C13        -3.1210   -1.4780    3.7380 c         1 MOL      0.644871
     35 O7         -2.7770   -1.7730    4.9350 o         1 MOL     -0.707203
     36 O8         -2.3940   -1.7830    2.7820 o         1 MOL     -0.707203
     37 H13        -6.2290    1.4120    3.6270 hn        1 MOL      0.325514
     38 H14        -3.6210    0.8800    2.2130 h1        1 MOL      0.161512
     39 H15        -4.9120   -1.2490    2.6040 hc        1 MOL      0.009493
     40 H16        -5.1060   -0.7710    4.3000 hc        1 MOL      0.009493
     41 N4         -2.3240    1.7430    4.2150 n         1 MOL     -0.237421
     42 C14        -1.6790    2.5010    5.3440 c3        1 MOL     -0.425423
     43 C15        -0.2210    2.9680    5.1090 c         1 MOL      0.744676
     44 O9          0.2720    3.6610    5.9690 o         1 MOL     -0.590824
     45 H17        -1.8670    1.7540    3.3160 hn        1 MOL      0.201051
     46 H18        -1.6020    1.8350    6.2070 h1        1 MOL      0.171019
     47 H19        -2.2720    3.4040    5.4830 h1        1 MOL      0.171019
     48 N5          0.4460    2.5830    4.0110 n         1 MOL     -0.494319
     49 C16         1.6660    3.1850    3.5090 c3        1 MOL      0.010110
     50 C17         1.2950    4.3140    2.5360 c         1 MOL      0.577067
     51 O10         0.5620    4.0060    1.6600 o         1 MOL     -0.470087
     52 C18         2.6490    2.1600    2.9600 c3        1 MOL     -0.217136
     53 C19         3.0830    1.1280    4.0490 c         1 MOL      0.785100
     54 N6          3.8620    1.5080    5.0320 n         1 MOL     -0.865385
     55 O11         2.8180   -0.0280    3.9210 o         1 MOL     -0.568415
     56 H20         0.0170    1.8210    3.5200 hn        1 MOL      0.334324
     57 H21         2.2290    3.6670    4.3110 h1        1 MOL     -0.002173
     58 H22         3.6210    2.5140    2.6210 hc        1 MOL      0.086490
     59 H23         2.0590    1.5830    2.2430 hc        1 MOL      0.086490
     60 H24         4.0940    2.4810    5.1870 hn        1 MOL      0.378728
     61 H25         4.0910    0.8730    5.7870 hn        1 MOL      0.378728
     62 N7          1.9400    5.4600    2.5680 n         1 MOL     -0.432196
     63 C20         1.9670    6.5650    1.5280 c3        1 MOL     -0.291548
     64 C21         2.7710    6.1230    0.3060 c         1 MOL      0.743991
     65 O12         3.5410    5.1660    0.3400 o         1 MOL     -0.544100
     66 H26         2.6090    5.5660    3.3180 hn        1 MOL      0.301188
     67 H27         2.5570    7.4260    1.8590 h1        1 MOL      0.141431
     68 H28         0.9590    6.7900    1.1700 h1        1 MOL      0.141431
     69 N8          2.6490    6.7760   -0.8550 n         1 MOL     -0.423269
     70 C22         3.5960    6.6670   -1.9910 c3        1 MOL     -0.439332
     71 C23         3.6800    5.3350   -2.7040 c         1 MOL      0.606362
     72 O13         4.6800    5.0130   -3.3880 o         1 MOL     -0.586286
     73 C24         3.3620    7.8010   -2.9750 c3        1 MOL      0.526145
     74 C25         2.0040    7.7520   -3.6130 c3        1 MOL     -0.344929
     75 O14         3.5200    9.0760   -2.3900 oh        1 MOL     -0.683484
     76 H29         1.9280    7.4770   -0.8890 hn        1 MOL      0.230534
     77 H30         4.6270    6.7280   -1.6300 h1        1 MOL      0.180798
     78 H31         4.0790    7.7270   -3.7900 h1        1 MOL      0.047076
     79 H32         2.9150    9.3240   -1.6840 ho        1 MOL      0.408823
     80 H33         1.1790    7.7520   -2.9090 hc        1 MOL      0.087975
     81 H34         1.7680    8.6630   -4.1610 hc        1 MOL      0.087975
     82 H35         1.9550    6.8840   -4.2800 hc        1 MOL      0.087975
     83 N9          2.5940    4.5560   -2.6010 n         1 MOL     -0.129327
     84 C26         2.3810    3.2720   -3.2440 c3        1 MOL     -0.298433
     85 C27         1.7930    2.3180   -2.2030 c         1 MOL      0.611271
     86 O15         0.8960    2.8140   -1.5140 o         1 MOL     -0.522252
     87 C28         1.3620    3.4100   -4.4960 c3        1 MOL      0.313617
     88 C29         2.1330    3.7410   -5.7840 c3        1 MOL     -0.019101
     89 C30         0.4810    2.1770   -4.5780 c3        1 MOL     -0.132042
     90 C31         1.2230    4.1990   -6.9450 c3        1 MOL     -0.096478
     91 H36         1.9080    4.8860   -1.9380 hn        1 MOL      0.173173
     92 H37         3.3200    2.8910   -3.6460 h1        1 MOL      0.096988
     93 H38         0.7710    4.3220   -4.3860 hc        1 MOL     -0.052788
     94 H39         2.6130    2.7850   -6.0280 hc        1 MOL     -0.009561
     95 H40         2.8480    4.5520   -5.6580 hc        1 MOL     -0.009561
     96 H41        -0.2640    2.1230   -3.7810 hc        1 MOL      0.040515
     97 H42        -0.1110    2.2420   -5.4920 hc        1 MOL      0.040515
     98 H43         1.0610    1.2650   -4.7090 hc        1 MOL      0.040515
     99 H44         0.6700    5.0800   -6.6330 hc        1 MOL      0.016864
    100 H45         1.7470    4.4400   -7.8770 hc        1 MOL      0.016864
    101 H46         0.4230    3.4910   -7.1070 hc        1 MOL      0.016864
    102 N10         2.1760    1.0380   -2.1200 n         1 MOL     -0.587582
    103 C32         1.5020    0.0220   -1.2490 c3        1 MOL      0.102594
    104 C33         2.4820   -0.8650   -0.4620 c         1 MOL      0.693256
    105 O16         2.3340   -2.0620   -0.4690 o         1 MOL     -0.522709
    106 C34         0.4100   -0.7640   -2.0260 c3        1 MOL      0.164811
    107 C35        -0.5970   -1.5000   -1.1330 c         1 MOL      0.652862
    108 O17        -1.3320   -2.3320   -1.6940 o         1 MOL     -0.745703
    109 O18        -0.7530   -1.1560    0.0460 o         1 MOL     -0.745703
    110 H47         2.9850    0.7220   -2.6360 hn        1 MOL      0.339099
    111 H48         0.9830    0.5120   -0.4240 h1        1 MOL      0.090124
    112 H49         0.8150   -1.5900   -2.6120 hc        1 MOL     -0.061473
    113 H50        -0.0250   -0.0840   -2.7590 hc        1 MOL     -0.061473
    114 N11         3.4370   -0.2910    0.2870 n         1 MOL     -0.811311
    115 C36         4.5330   -1.0260    1.0010 c3        1 MOL      0.531225
    116 C37         5.2280   -1.9940   -0.0070 c         1 MOL      0.060783
    117 O19         5.7210   -1.6050   -1.0330 o         1 MOL     -0.491051
    118 C38         5.5660   -0.1060    1.5840 c3        1 MOL     -0.178021
    119 C39         6.6060   -0.8360    2.4740 ca        1 MOL      0.058324
    120 C40         6.2340   -1.2660    3.7560 ca        1 MOL     -0.139568
    121 C41         7.9510   -0.8750    2.1140 ca        1 MOL     -0.139568
    122 C42         7.1930   -1.8130    4.6640 ca        1 MOL     -0.149838
    123 C43         8.9280   -1.3980    2.9980 ca        1 MOL     -0.149838
    124 C44         8.5410   -1.9070    4.2350 ca        1 MOL     -0.086415
    125 H51         3.5640    0.7050    0.1920 hn        1 MOL      0.340100
    126 H52         4.1350   -1.6380    1.8090 h1        1 MOL      0.007063
    127 H53         5.1530    0.6920    2.1930 hc        1 MOL      0.061430
    128 H54         6.0600    0.4410    0.7830 hc        1 MOL      0.061430
    129 H55         5.1890   -1.3640    4.0100 ha        1 MOL      0.125205
    130 H56         8.2890   -0.5230    1.1510 ha        1 MOL      0.125205
    131 H57         6.8750   -2.1700    5.6260 ha        1 MOL      0.118650
    132 H58         9.9340   -1.4510    2.6030 ha        1 MOL      0.118650
    133 H59         9.3090   -2.3670    4.8440 ha        1 MOL      0.090200
    134 N12         5.2800   -3.3120    0.2120 n         1 MOL      0.163141
    135 C45         5.9890   -4.2000   -0.7510 c3        1 MOL      0.079348
    136 C46         5.1140   -4.5300   -1.9750 c         1 MOL      0.311153
    137 O20         5.6110   -5.0760   -2.9850 o         1 MOL     -0.508002
    138 C47         6.3550   -5.4300    0.0250 c3        1 MOL     -0.302648
    139 C48         5.2920   -5.4960    1.1020 c3        1 MOL      0.163739
    140 C49         4.9600   -4.0840    1.4170 c3        1 MOL     -0.305090
    141 H60         6.8430   -3.6780   -1.1620 h1        1 MOL      0.062866
    142 H61         6.3560   -6.3500   -0.5600 hc        1 MOL      0.093781
    143 H62         7.2980   -5.1890    0.5270 hc        1 MOL      0.093781
    144 H63         4.3720   -5.9560    0.7550 hc        1 MOL      0.001806
    145 H64         5.5940   -6.0430    1.9920 hc        1 MOL      0.001806
    146 H65         3.9100   -3.9220    1.6850 h1        1 MOL      0.096310
    147 H66         5.5980   -3.6290    2.1630 h1        1 MOL      0.096310
    148 N13         3.7850   -4.3740   -1.9030 n         1 MOL     -0.099895
    149 C50         2.9310   -5.1190   -2.8000 c3        1 MOL     -0.153774
    150 C51         2.9510   -4.5210   -4.2730 c         1 MOL      0.461932
    151 O21         3.0640   -5.2790   -5.1690 o         1 MOL     -0.505716
    152 C52         1.5270   -5.0190   -2.1950 c3        1 MOL      0.202609
    153 C53         1.4530   -5.6190   -0.7690 c3        1 MOL      0.013630
    154 C54        -0.0120   -5.7880   -0.2570 c         1 MOL      0.676413
    155 O22        -0.6060   -4.7760    0.1950 o         1 MOL     -0.743780
    156 O23        -0.4180   -6.9230   -0.4180 o         1 MOL     -0.743780
    157 H67         3.3290   -3.9490   -1.1040 hn        1 MOL      0.216155
    158 H68         3.1890   -6.1640   -2.9580 h1        1 MOL      0.105192
    159 H69         0.7720   -5.4950   -2.8300 hc        1 MOL     -0.036416
    160 H70         1.2570   -3.9720   -2.1000 hc        1 MOL     -0.036416
    161 H71         2.1570   -5.1460   -0.0760 hc        1 MOL     -0.036953
    162 H72         1.8960   -6.5990   -0.9700 hc        1 MOL     -0.036953
    163 N14         2.7850   -3.1670   -4.4560 n         1 MOL     -0.254215
    164 C55         2.6950   -2.5630   -5.8390 c3        1 MOL     -0.167431
    165 H73         2.6810   -3.3600   -6.5820 h1        1 MOL      0.082623
    166 H74         1.7810   -1.9750   -5.9210 h1        1 MOL      0.082623
    167 H75         3.5580   -1.9210   -6.0130 h1        1 MOL      0.082623
    168 H76         2.8240   -2.5560   -3.6570 hn        1 MOL      0.174213
    169 Ca1        -2.6010   -3.0710    0.6130 Ca        1 MOL      1.753457
    170 O24        -3.3890   -5.9420    0.0940 oh        1 MOL     -0.810723
    171 H77        -2.4880   -6.1880   -0.1450 ho        1 MOL      0.397545
    172 H78        -3.9080   -6.7190   -0.1250 ho        1 MOL      0.397545
    173 O25        -4.3820   -1.0610    0.2680 oh        1 MOL     -0.810723
    174 H79        -4.5090   -0.1190    0.2460 ho        1 MOL      0.397545
    175 H80        -5.2560   -1.4230    0.1190 ho        1 MOL      0.397545
    176 O26        -5.2800   -3.6200    1.7140 oh        1 MOL     -0.810723
    177 H81        -6.0580   -3.1420    1.9970 ho        1 MOL      0.397545
    178 H82        -5.6080   -4.3150    1.1550 ho        1 MOL      0.397545
    179 O27        -2.4160   -4.7970    2.7670 oh        1 MOL     -0.810723
    180 H83        -2.4860   -4.6700    3.7190 ho        1 MOL      0.397545
    181 H84        -2.0760   -5.6800    2.6720 ho        1 MOL      0.397545
    182 O28        -3.9820   -3.5640   -1.5770 oh        1 MOL     -0.810723
    183 H85        -4.7550   -4.0230   -1.9360 ho        1 MOL      0.397545
    184 H86        -3.2520   -3.9030   -2.0840 ho        1 MOL      0.397545
@<TRIPOS>BOND
     1    1    2 1   
     2    1    4 1   
     3    1    5 1   
     4    1    6 1   
     5    2    3 2   
     6    2    7 1   
     7    7    8 1   
     8    7   15 1   
     9    8    9 1   
    10    8   11 1   
    11    8   16 1   
    12    9   10 2   
    13    9   19 1   
    14   11   12 1   
    15   11   17 1   
    16   11   18 1   
    17   12   13 1   
    18   12   14 1   
    19   19   20 1   
    20   19   24 1   
    21   20   21 1   
    22   20   23 1   
    23   20   25 1   
    24   21   22 2   
    25   21   29 1   
    26   23   26 1   
    27   23   27 1   
    28   23   28 1   
    29   29   30 1   
    30   29   37 1   
    31   30   31 1   
    32   30   33 1   
    33   30   38 1   
    34   31   32 2   
    35   31   41 1   
    36   33   34 1   
    37   33   39 1   
    38   33   40 1   
    39   34   35 1   
    40   34   36 1   
    41   41   42 1   
    42   41   45 1   
    43   42   43 1   
    44   42   46 1   
    45   42   47 1   
    46   43   44 2   
    47   43   48 1   
    48   48   49 1   
    49   48   56 1   
    50   49   50 1   
    51   49   52 1   
    52   49   57 1   
    53   50   51 2   
    54   50   62 1   
    55   52   53 1   
    56   52   58 1   
    57   52   59 1   
    58   53   54 1   
    59   53   55 2   
    60   54   60 1   
    61   54   61 1   
    62   62   63 1   
    63   62   66 1   
    64   63   64 1   
    65   63   67 1   
    66   63   68 1   
    67   64   65 2   
    68   64   69 1   
    69   69   70 1   
    70   69   76 1   
    71   70   71 1   
    72   70   73 1   
    73   70   77 1   
    74   71   72 2   
    75   71   83 1   
    76   73   74 1   
    77   73   75 1   
    78   73   78 1   
    79   74   80 1   
    80   74   81 1   
    81   74   82 1   
    82   75   79 1   
    83   83   84 1   
    84   83   91 1   
    85   84   85 1   
    86   84   87 1   
    87   84   92 1   
    88   85   86 2   
    89   85  102 1   
    90   87   88 1   
    91   87   89 1   
    92   87   93 1   
    93   88   90 1   
    94   88   94 1   
    95   88   95 1   
    96   89   96 1   
    97   89   97 1   
    98   89   98 1   
    99   90   99 1   
   100   90  100 1   
   101   90  101 1   
   102  102  103 1   
   103  102  110 1   
   104  103  104 1   
   105  103  106 1   
   106  103  111 1   
   107  104  105 2   
   108  104  114 1   
   109  106  107 1   
   110  106  112 1   
   111  106  113 1   
   112  107  108 1   
   113  107  109 1   
   114  114  115 1   
   115  114  125 1   
   116  115  116 1   
   117  115  118 1   
   118  115  126 1   
   119  116  117 2   
   120  116  134 1   
   121  118  119 1   
   122  118  127 1   
   123  118  128 1   
   124  119  120 ar  
   125  119  121 ar  
   126  120  122 ar  
   127  120  129 1   
   128  121  123 ar  
   129  121  130 1   
   130  122  124 ar  
   131  122  131 1   
   132  123  124 ar  
   133  123  132 1   
   134  124  133 1   
   135  134  135 1   
   136  134  140 1   
   137  135  136 1   
   138  135  138 1   
   139  135  141 1   
   140  136  137 2   
   141  136  148 1   
   142  138  139 1   
   143  138  142 1   
   144  138  143 1   
   145  139  140 1   
   146  139  144 1   
   147  139  145 1   
   148  140  146 1   
   149  140  147 1   
   150  148  149 1   
   151  148  157 1   
   152  149  150 1   
   153  149  152 1   
   154  149  158 1   
   155  150  151 2   
   156  150  163 1   
   157  152  153 1   
   158  152  159 1   
   159  152  160 1   
   160  153  154 1   
   161  153  161 1   
   162  153  162 1   
   163  154  155 1   
   164  154  156 1   
   165  163  164 1   
   166  163  168 1   
   167  164  165 1   
   168  164  166 1   
   169  164  167 1   
   170  170  171 1   
   171  170  172 1   
   172  173  174 1   
   173  173  175 1   
   174  176  177 1   
   175  176  178 1   
   176  179  180 1   
   177  179  181 1   
   178  182  183 1   
   179  182  184 1   
@<TRIPOS>SUBSTRUCTURE
     1 MOL         1 TEMP              0 ****  ****    0 ROOT
