@<TRIPOS>MOLECULE
MOL
  188   182     1     0     0
SMALL
resp


@<TRIPOS>ATOM
      1 C1          7.1060    3.3770   -2.0150 c3        1 MOL     -0.372582
      2 C2          7.2470    1.9170   -1.7010 c         1 MOL      0.707502
      3 O1          6.4360    1.3330   -0.9860 o         1 MOL     -0.598762
      4 H1          6.1820    3.7540   -1.5790 hc        1 MOL      0.095834
      5 H2          7.9530    3.9210   -1.5970 hc        1 MOL      0.095834
      6 H3          7.0810    3.5160   -3.0960 hc        1 MOL      0.095834
      7 N1          8.3360    1.2500   -2.1400 n         1 MOL     -0.629295
      8 C3          8.6110   -0.2300   -1.8780 c3        1 MOL      0.325734
      9 C4          8.5250   -0.7760   -0.3990 c         1 MOL      0.343203
     10 O2          8.4930   -1.9840   -0.1310 o         1 MOL     -0.450600
     11 C5          7.6990   -1.1380   -2.7690 c3        1 MOL     -0.207127
     12 C6          8.3350   -2.4870   -3.0320 c         1 MOL      0.649013
     13 O3          9.6010   -2.5030   -3.1350 o         1 MOL     -0.640527
     14 O4          7.5370   -3.4630   -3.2370 o         1 MOL     -0.640527
     15 H4          9.1390    1.7920   -2.4080 hn        1 MOL      0.318211
     16 H5          9.6230   -0.4270   -2.2370 h1        1 MOL     -0.004830
     17 H6          7.5210   -0.6230   -3.7170 hc        1 MOL      0.068800
     18 H7          6.7330   -1.1990   -2.2690 hc        1 MOL      0.068800
     19 N2          8.6160    0.1180    0.5840 n         1 MOL     -0.279448
     20 C7          8.5750   -0.1880    2.0490 c3        1 MOL      0.085620
     21 C8          7.1360   -0.3570    2.6140 c         1 MOL      0.596425
     22 O5          6.9700   -0.5870    3.7820 o         1 MOL     -0.586676
     23 C9          9.4750    0.7810    2.8860 c3        1 MOL     -0.147023
     24 C10         9.2320    2.2030    2.3550 c3        1 MOL      0.014541
     25 C11         9.7260    3.3120    3.3390 c3        1 MOL     -0.085154
     26 C12         9.3650    4.6480    2.7660 c3        1 MOL     -0.039839
     27 N3          7.9650    4.9810    3.1550 n4        1 MOL     -0.307569
     28 H8          8.8470    1.0500    0.2700 hn        1 MOL      0.100982
     29 H9          8.9550   -1.1870    2.2210 h1        1 MOL      0.102871
     30 H10        10.5070    0.5450    2.6090 hc        1 MOL      0.064910
     31 H11         9.3210    0.6410    3.9550 hc        1 MOL      0.064910
     32 H12         8.1760    2.4380    2.1740 hc        1 MOL      0.034518
     33 H13         9.7570    2.2860    1.4050 hc        1 MOL      0.034518
     34 H14        10.8140    3.3140    3.4860 hc        1 MOL      0.070947
     35 H15         9.2140    3.2790    4.2940 hc        1 MOL      0.070947
     36 H16         9.4640    4.6900    1.6790 hx        1 MOL      0.103970
     37 H17        10.0750    5.4250    3.0700 hx        1 MOL      0.103970
     38 H18         7.5940    5.8170    2.7260 hn        1 MOL      0.244357
     39 H19         7.2550    4.3030    2.9220 hn        1 MOL      0.244357
     40 H20         7.9820    5.1620    4.1480 hn        1 MOL      0.244357
     41 N4          6.1490   -0.3850    1.6840 n         1 MOL     -0.508545
     42 C13         4.7300   -0.4670    1.9300 c3        1 MOL      0.046148
     43 C14         4.2900   -1.8590    2.1650 c         1 MOL      0.612072
     44 O6          4.3650   -2.7640    1.3300 o         1 MOL     -0.511143
     45 C15         4.0110    0.1270    0.7600 c3        1 MOL     -0.086678
     46 C16         2.5580    0.2820    1.0350 c         1 MOL      0.158174
     47 O7          2.1250    1.3910    1.4200 o         1 MOL     -0.506019
     48 O8          1.7240   -0.6690    1.0370 o         1 MOL     -0.506019
     49 H21         6.4720   -0.1570    0.7510 hn        1 MOL      0.269665
     50 H22         4.5490    0.2070    2.7720 h1        1 MOL      0.047351
     51 H23         4.1910   -0.4940   -0.1180 hc        1 MOL      0.086019
     52 H24         4.4320    1.1120    0.5710 hc        1 MOL      0.086019
     53 N5          3.6380   -2.0810    3.3080 n         1 MOL     -0.284742
     54 C17         3.3080   -3.3900    3.8250 c3        1 MOL     -0.164220
     55 C18         2.2170   -4.1040    3.0600 c         1 MOL      0.423612
     56 O9          2.0030   -5.3030    3.2410 o         1 MOL     -0.540690
     57 H25         3.6400   -1.2820    3.9210 hn        1 MOL      0.213953
     58 H26         3.0240   -3.3320    4.8840 h1        1 MOL      0.121437
     59 H27         4.2010   -4.0280    3.8400 h1        1 MOL      0.121437
     60 N6          1.6360   -3.5150    2.0410 n         1 MOL     -0.101804
     61 C19         0.7960   -4.1940    1.1110 c3        1 MOL     -0.160921
     62 C20         1.0260   -3.8340   -0.3430 c         1 MOL      0.407473
     63 O10         0.1730   -4.3000   -1.1780 o         1 MOL     -0.507343
     64 C21        -0.6650   -4.1800    1.5440 c3        1 MOL     -0.278689
     65 C22        -1.4140   -2.8390    1.4210 c         1 MOL      0.555202
     66 N7         -2.6850   -2.8580    1.8690 n         1 MOL     -0.822601
     67 O11        -0.8590   -1.7910    1.0800 o         1 MOL     -0.571959
     68 H28         1.8040   -2.5360    1.9200 hn        1 MOL      0.136183
     69 H29         1.0040   -5.2560    1.0610 h1        1 MOL      0.181151
     70 H30        -0.7700   -4.6010    2.5380 hc        1 MOL      0.147215
     71 H31        -1.1490   -4.9020    0.8830 hc        1 MOL      0.147215
     72 H32        -3.2410   -3.6400    2.1850 hn        1 MOL      0.388941
     73 H33        -3.2210   -1.9990    1.8060 hn        1 MOL      0.388941
     74 N8          2.1400   -3.2480   -0.7120 n         1 MOL     -0.116801
     75 C23         2.5350   -3.0100   -2.0820 c3        1 MOL      0.009895
     76 C24         2.2180   -1.5790   -2.6500 c         1 MOL      0.477764
     77 O12         2.5770   -1.4550   -3.8130 o         1 MOL     -0.506257
     78 H34         2.8570   -3.1690   -0.0100 hn        1 MOL      0.195936
     79 H35         2.0030   -3.7240   -2.7280 h1        1 MOL      0.074544
     80 H36         3.5730   -3.0760   -2.3930 h1        1 MOL      0.074544
     81 N9          1.5850   -0.5650   -1.9750 n         1 MOL     -0.273758
     82 C25         1.0310    0.6100   -2.5600 c3        1 MOL     -0.183484
     83 C26        -0.2800    0.8700   -1.9230 c         1 MOL      0.265286
     84 O13        -0.3760    0.7280   -0.6790 o         1 MOL     -0.411277
     85 C27         2.0180    1.7300   -2.2450 c3        1 MOL     -0.117024
     86 C28         1.5270    3.1340   -2.6370 ca        1 MOL      0.013592
     87 C29         1.5640    3.6210   -3.9440 ca        1 MOL     -0.191961
     88 C30         1.0790    3.9930   -1.5970 ca        1 MOL     -0.191961
     89 C31         1.0970    4.9220   -4.2640 ca        1 MOL     -0.152194
     90 C32         0.4460    5.1750   -1.9470 ca        1 MOL     -0.152194
     91 C33         0.5080    5.6760   -3.2510 ca        1 MOL      0.211211
     92 O14        -0.0770    6.9060   -3.5470 oh        1 MOL     -0.467531
     93 H37         1.3600   -0.7450   -1.0000 hn        1 MOL      0.193182
     94 H38         0.9460    0.4840   -3.6390 h1        1 MOL      0.121262
     95 H39         2.9950    1.5410   -2.6730 hc        1 MOL      0.125545
     96 H40         2.2460    1.8130   -1.1830 hc        1 MOL      0.125545
     97 H41         2.0290    2.9680   -4.6740 ha        1 MOL      0.145516
     98 H42         1.2080    3.7930   -0.5430 ha        1 MOL      0.145516
     99 H43         1.1550    5.2490   -5.2960 ha        1 MOL      0.126095
    100 H44        -0.0340    5.7430   -1.1700 ha        1 MOL      0.126095
    101 H45        -0.5150    7.3220   -2.8050 ho        1 MOL      0.349717
    102 N10        -1.3260    1.1790   -2.6990 n         1 MOL      0.026330
    103 C34        -2.7280    1.1340   -2.2650 c3        1 MOL     -0.197332
    104 C35        -3.1640   -0.2680   -1.9600 c         1 MOL      0.259624
    105 O15        -3.8580   -0.4420   -0.9480 o         1 MOL     -0.405869
    106 C36        -3.6490    1.9300   -3.2440 c3        1 MOL      0.119622
    107 C37        -3.2320    3.3600   -3.5930 c3        1 MOL     -0.062902
    108 C38        -5.0770    1.9430   -2.6880 c3        1 MOL     -0.414807
    109 C39        -3.1350    4.2530   -2.3490 c3        1 MOL     -0.099839
    110 H46        -1.0790    1.2790   -3.6780 hn        1 MOL      0.190687
    111 H47        -2.7610    1.7030   -1.3440 h1        1 MOL      0.113218
    112 H48        -3.6120    1.3890   -4.1890 hc        1 MOL     -0.034061
    113 H49        -4.0160    3.7280   -4.2540 hc        1 MOL      0.056270
    114 H50        -2.2440    3.3150   -4.0410 hc        1 MOL      0.056270
    115 H51        -5.0840    2.3160   -1.6690 hc        1 MOL      0.128442
    116 H52        -5.6360    2.6400   -3.3210 hc        1 MOL      0.128442
    117 H53        -5.5130    0.9410   -2.7230 hc        1 MOL      0.128442
    118 H54        -2.4540    3.7820   -1.6420 hc        1 MOL      0.019126
    119 H55        -2.7240    5.2330   -2.6220 hc        1 MOL      0.019126
    120 H56        -4.1230    4.2530   -1.8930 hc        1 MOL      0.019126
    121 N11        -2.6160   -1.2830   -2.6640 n         1 MOL     -0.031155
    122 C40        -2.7850   -2.6790   -2.2910 c3        1 MOL     -0.300333
    123 C41        -4.2590   -3.1360   -2.2180 c         1 MOL      0.376309
    124 O16        -4.5970   -3.9600   -1.3680 o         1 MOL     -0.457332
    125 C42        -1.9300   -3.4790   -3.3150 c3        1 MOL      0.095910
    126 O17        -0.5560   -3.0410   -3.4120 oh        1 MOL     -0.532722
    127 H57        -1.9980   -1.1300   -3.4600 hn        1 MOL      0.201450
    128 H58        -2.3260   -2.9270   -1.3340 h1        1 MOL      0.203817
    129 H59        -2.4560   -3.3840   -4.2740 h1        1 MOL      0.068788
    130 H60        -1.8900   -4.5450   -3.0810 h1        1 MOL      0.068788
    131 H61        -0.1750   -3.3490   -2.5860 ho        1 MOL      0.344655
    132 N12        -5.1300   -2.5570   -3.0130 n         1 MOL     -0.203360
    133 C43        -6.5800   -2.7520   -3.0190 c3        1 MOL      0.155033
    134 C44        -7.1680   -2.6020   -1.5900 c         1 MOL      0.431784
    135 O18        -8.2060   -3.2990   -1.3500 o         1 MOL     -0.492582
    136 C45        -7.0040   -3.9350   -3.8490 c3        1 MOL     -0.393122
    137 H62        -4.7770   -2.0070   -3.7880 hn        1 MOL      0.202447
    138 H63        -6.9210   -1.9230   -3.6390 h1        1 MOL      0.067506
    139 H64        -6.4150   -3.9460   -4.7560 hc        1 MOL      0.115356
    140 H65        -6.9770   -4.9050   -3.3450 hc        1 MOL      0.115356
    141 H66        -8.0040   -3.6980   -4.1990 hc        1 MOL      0.115356
    142 N13        -6.6110   -1.7010   -0.7220 n         1 MOL     -0.536403
    143 C46        -7.1590   -1.4140    0.5690 c3        1 MOL      0.368387
    144 C47        -7.6800    0.0390    0.7020 c         1 MOL      0.385646
    145 O19        -7.1670    0.9010   -0.0370 o         1 MOL     -0.525151
    146 C48        -6.0970   -1.5820    1.5840 c3        1 MOL     -0.021193
    147 H67        -5.7130   -1.2710   -0.9120 hn        1 MOL      0.279948
    148 H68        -7.9900   -2.0950    0.7860 h1        1 MOL     -0.011670
    149 H69        -5.7850   -2.5970    1.8370 hc        1 MOL     -0.015221
    150 H70        -5.2140   -1.0900    1.1940 hc        1 MOL     -0.015221
    151 H71        -6.3090   -1.1920    2.5830 hc        1 MOL     -0.015221
    152 N14        -8.5490    0.2770    1.6750 n         1 MOL     -0.366590
    153 C49        -9.2650    1.5080    1.9360 c3        1 MOL      0.105937
    154 C50        -9.6260    2.3970    0.6450 c         1 MOL      0.479186
    155 O20        -9.4800    3.5690    0.5830 o         1 MOL     -0.493380
    156 C51        -8.4630    2.3250    2.9810 c3        1 MOL     -0.065936
    157 C52        -8.4670    1.6120    4.3340 c3        1 MOL      0.076079
    158 C53        -9.8810    1.2740    4.8270 c         1 MOL      0.672554
    159 O21       -10.4460    2.1100    5.5720 o         1 MOL     -0.658938
    160 O22       -10.3950    0.1570    4.5930 o         1 MOL     -0.658938
    161 H72        -8.7470   -0.5340    2.2430 hn        1 MOL      0.215818
    162 H73       -10.2350    1.2860    2.3670 h1        1 MOL      0.054893
    163 H74        -8.9100    3.3120    3.0990 hc        1 MOL      0.004816
    164 H75        -7.4080    2.2760    2.7060 hc        1 MOL      0.004816
    165 H76        -8.0830    2.2440    5.1370 hc        1 MOL     -0.067051
    166 H77        -7.8730    0.7010    4.2650 hc        1 MOL     -0.067051
    167 N15       -10.2520    1.8050   -0.4100 n         1 MOL     -0.285022
    168 C54       -10.4270    2.4450   -1.7180 c3        1 MOL     -0.264554
    169 H78       -11.2370    3.1710   -1.6620 h1        1 MOL      0.116975
    170 H79        -9.5050    2.9530   -2.0000 h1        1 MOL      0.116975
    171 H80       -10.6690    1.6890   -2.4640 h1        1 MOL      0.116975
    172 H81       -10.5980    0.8670   -0.3040 hn        1 MOL      0.219297
    173 Ca1        -0.1710    0.6160    2.0790 Ca        1 MOL      1.801966
    174 O23         0.6640   -0.9290    4.0900 oh        1 MOL     -0.883259
    175 H82         1.1860   -0.7430    4.8610 ho        1 MOL      0.429706
    176 H83         0.2380   -1.7640    4.2820 ho        1 MOL      0.429706
    177 O24         0.8420    2.4340    3.8120 oh        1 MOL     -0.883259
    178 H84         0.4930    3.2480    4.1790 ho        1 MOL      0.429706
    179 H85         1.1060    1.9170    4.5790 ho        1 MOL      0.429706
    180 O25        -2.0550    1.0000    4.0320 oh        1 MOL     -0.883259
    181 H86        -2.7400    0.3510    4.1920 ho        1 MOL      0.429706
    182 H87        -2.3510    1.7830    4.4920 ho        1 MOL      0.429706
    183 O26        -2.8300    0.6890    1.2170 oh        1 MOL     -0.883259
    184 H88        -3.1880    0.1780    0.4900 ho        1 MOL      0.429706
    185 H89        -3.5900    1.1060    1.6230 ho        1 MOL      0.429706
    186 O27        -0.6820    3.3920    1.3430 oh        1 MOL     -0.883259
    187 H90        -1.5200    3.5290    0.8960 ho        1 MOL      0.429706
    188 H91        -0.5450    4.1980    1.8500 ho        1 MOL      0.429706
@<TRIPOS>BOND
     1    1    2 1   
     2    1    4 1   
     3    1    5 1   
     4    1    6 1   
     5    2    3 2   
     6    2    7 1   
     7    7    8 1   
     8    7   15 1   
     9    8    9 1   
    10    8   11 1   
    11    8   16 1   
    12    9   10 2   
    13    9   19 1   
    14   11   12 1   
    15   11   17 1   
    16   11   18 1   
    17   12   13 1   
    18   12   14 1   
    19   19   20 1   
    20   19   28 1   
    21   20   21 1   
    22   20   23 1   
    23   20   29 1   
    24   21   22 2   
    25   21   41 1   
    26   23   24 1   
    27   23   30 1   
    28   23   31 1   
    29   24   25 1   
    30   24   32 1   
    31   24   33 1   
    32   25   26 1   
    33   25   34 1   
    34   25   35 1   
    35   26   27 1   
    36   26   36 1   
    37   26   37 1   
    38   27   38 1   
    39   27   39 1   
    40   27   40 1   
    41   41   42 1   
    42   41   49 1   
    43   42   43 1   
    44   42   45 1   
    45   42   50 1   
    46   43   44 2   
    47   43   53 1   
    48   45   46 1   
    49   45   51 1   
    50   45   52 1   
    51   46   47 1   
    52   46   48 1   
    53   53   54 1   
    54   53   57 1   
    55   54   55 1   
    56   54   58 1   
    57   54   59 1   
    58   55   56 2   
    59   55   60 1   
    60   60   61 1   
    61   60   68 1   
    62   61   62 1   
    63   61   64 1   
    64   61   69 1   
    65   62   63 2   
    66   62   74 1   
    67   64   65 1   
    68   64   70 1   
    69   64   71 1   
    70   65   66 1   
    71   65   67 2   
    72   66   72 1   
    73   66   73 1   
    74   74   75 1   
    75   74   78 1   
    76   75   76 1   
    77   75   79 1   
    78   75   80 1   
    79   76   77 2   
    80   76   81 1   
    81   81   82 1   
    82   81   93 1   
    83   82   83 1   
    84   82   85 1   
    85   82   94 1   
    86   83   84 2   
    87   83  102 1   
    88   85   86 1   
    89   85   95 1   
    90   85   96 1   
    91   86   87 ar  
    92   86   88 ar  
    93   87   89 ar  
    94   87   97 1   
    95   88   90 ar  
    96   88   98 1   
    97   89   91 ar  
    98   89   99 1   
    99   90   91 ar  
   100   90  100 1   
   101   91   92 1   
   102   92  101 1   
   103  102  103 1   
   104  102  110 1   
   105  103  104 1   
   106  103  106 1   
   107  103  111 1   
   108  104  105 2   
   109  104  121 1   
   110  106  107 1   
   111  106  108 1   
   112  106  112 1   
   113  107  109 1   
   114  107  113 1   
   115  107  114 1   
   116  108  115 1   
   117  108  116 1   
   118  108  117 1   
   119  109  118 1   
   120  109  119 1   
   121  109  120 1   
   122  121  122 1   
   123  121  127 1   
   124  122  123 1   
   125  122  125 1   
   126  122  128 1   
   127  123  124 2   
   128  123  132 1   
   129  125  126 1   
   130  125  129 1   
   131  125  130 1   
   132  126  131 1   
   133  132  133 1   
   134  132  137 1   
   135  133  134 1   
   136  133  136 1   
   137  133  138 1   
   138  134  135 2   
   139  134  142 1   
   140  136  139 1   
   141  136  140 1   
   142  136  141 1   
   143  142  143 1   
   144  142  147 1   
   145  143  144 1   
   146  143  146 1   
   147  143  148 1   
   148  144  145 2   
   149  144  152 1   
   150  146  149 1   
   151  146  150 1   
   152  146  151 1   
   153  152  153 1   
   154  152  161 1   
   155  153  154 1   
   156  153  156 1   
   157  153  162 1   
   158  154  155 2   
   159  154  167 1   
   160  156  157 1   
   161  156  163 1   
   162  156  164 1   
   163  157  158 1   
   164  157  165 1   
   165  157  166 1   
   166  158  159 1   
   167  158  160 1   
   168  167  168 1   
   169  167  172 1   
   170  168  169 1   
   171  168  170 1   
   172  168  171 1   
   173  174  175 1   
   174  174  176 1   
   175  177  178 1   
   176  177  179 1   
   177  180  181 1   
   178  180  182 1   
   179  183  184 1   
   180  183  185 1   
   181  186  187 1   
   182  186  188 1   
@<TRIPOS>SUBSTRUCTURE
     1 MOL         1 TEMP              0 ****  ****    0 ROOT
