@<TRIPOS>MOLECULE
MOL
  181   177     1     0     0
SMALL
resp


@<TRIPOS>ATOM
      1 C1          4.0900   -1.9390    4.4830 c3        1 MOL     -0.430002
      2 C2          5.4590   -1.3930    3.8560 c         1 MOL      0.695850
      3 O1          5.7670   -0.2140    4.0260 o         1 MOL     -0.588002
      4 H1          3.2470   -1.5260    3.9280 hc        1 MOL      0.109547
      5 H2          4.0690   -3.0260    4.4190 hc        1 MOL      0.109547
      6 H3          4.0200   -1.6340    5.5270 hc        1 MOL      0.109547
      7 N1          6.2490   -2.2530    3.1990 n         1 MOL     -0.621056
      8 C3          7.6270   -1.8040    2.7390 c3        1 MOL      0.278319
      9 C4          7.4940   -1.1470    1.3370 c         1 MOL      0.556848
     10 O2          7.0010   -1.7850    0.3770 o         1 MOL     -0.560556
     11 C5          8.5930   -2.9850    2.6340 c3        1 MOL     -0.251180
     12 C6          9.9760   -2.5440    2.1760 c         1 MOL      0.732559
     13 O3         10.7820   -3.3500    1.6050 o         1 MOL     -0.734840
     14 O4         10.3440   -1.3850    2.4890 o         1 MOL     -0.734840
     15 H4          6.0140   -3.2400    3.1970 hn        1 MOL      0.321304
     16 H5          7.9550   -1.0230    3.4310 h1        1 MOL      0.011773
     17 H6          8.2250   -3.7440    1.9340 hc        1 MOL      0.027225
     18 H7          8.6270   -3.4230    3.6370 hc        1 MOL      0.027225
     19 N2          8.0460    0.0680    1.1680 n         1 MOL     -0.516559
     20 C7          7.8490    0.8420   -0.0680 c3        1 MOL      0.408536
     21 C8          6.3670    1.3550   -0.2420 c         1 MOL      0.303600
     22 O5          5.5320    1.3010    0.6770 o         1 MOL     -0.498254
     23 C9          8.8810    2.0070   -0.0730 c3        1 MOL     -0.330059
     24 H8          8.3540    0.5760    1.9780 hn        1 MOL      0.301820
     25 H9          8.0700    0.2110   -0.9280 h1        1 MOL      0.007478
     26 H10         9.8630    1.6720    0.2730 hc        1 MOL      0.079774
     27 H11         8.9590    2.5430   -1.0190 hc        1 MOL      0.079774
     28 H12         8.5480    2.7450    0.6490 hc        1 MOL      0.079774
     29 N3          6.0760    1.8230   -1.4700 n         1 MOL     -0.485931
     30 C10         4.7270    2.4090   -1.8700 c3        1 MOL      0.042400
     31 C11         4.7190    3.8670   -1.5450 c         1 MOL      0.605684
     32 O6          5.2300    4.6950   -2.2730 o         1 MOL     -0.568943
     33 C12         4.3230    2.0640   -3.3070 c3        1 MOL     -0.299924
     34 C13         4.4470    0.6200   -3.6300 c         1 MOL      0.725379
     35 O7          3.6270   -0.1730   -3.1110 o         1 MOL     -0.680703
     36 O8          5.3110    0.2640   -4.4460 o         1 MOL     -0.680703
     37 H13         6.7860    1.6670   -2.1690 hn        1 MOL      0.329755
     38 H14         3.9960    1.8300   -1.3060 h1        1 MOL      0.045664
     39 H15         5.0270    2.5460   -3.9800 hc        1 MOL      0.072583
     40 H16         3.3010    2.3730   -3.5490 hc        1 MOL      0.072583
     41 N4          3.9480    4.1670   -0.5610 n         1 MOL     -0.274649
     42 C14         3.3840    5.4940   -0.1990 c3        1 MOL     -0.262302
     43 C15         2.0980    5.8110   -0.9680 c         1 MOL      0.639274
     44 O9          1.6170    6.9010   -0.9090 o         1 MOL     -0.556668
     45 H17         3.5470    3.3990   -0.0420 hn        1 MOL      0.266143
     46 H18         4.0920    6.2760   -0.4790 h1        1 MOL      0.124929
     47 H19         3.2580    5.6260    0.8720 h1        1 MOL      0.124929
     48 N5          1.4270    4.8200   -1.6200 n         1 MOL     -0.253339
     49 C16         0.1690    4.9890   -2.2670 c3        1 MOL     -0.388268
     50 C17        -0.9290    5.6380   -1.3210 c         1 MOL      0.563026
     51 O10        -1.1010    5.2760   -0.1570 o         1 MOL     -0.473062
     52 C18        -0.3970    3.6020   -2.8050 c3        1 MOL     -0.101485
     53 C19         0.4810    2.8710   -3.7920 c         1 MOL      0.657663
     54 N6          0.7930    1.7190   -3.4130 n         1 MOL     -0.796529
     55 O11         0.9310    3.4610   -4.7620 o         1 MOL     -0.597916
     56 H20         1.8420    3.9090   -1.4920 hn        1 MOL      0.250595
     57 H21         0.2570    5.5960   -3.1640 h1        1 MOL      0.159847
     58 H22        -1.3990    3.6330   -3.2290 hc        1 MOL      0.075095
     59 H23        -0.4970    2.9240   -1.9550 hc        1 MOL      0.075095
     60 H24         0.4010    1.2820   -2.5900 hn        1 MOL      0.370433
     61 H25         1.5130    1.2960   -3.9960 hn        1 MOL      0.370433
     62 N7         -1.7260    6.5240   -1.9340 n         1 MOL     -0.208826
     63 C20        -2.7620    7.2400   -1.2970 c3        1 MOL     -0.412602
     64 C21        -3.7750    6.2200   -0.7750 c         1 MOL      0.521631
     65 O12        -4.3200    5.3220   -1.5190 o         1 MOL     -0.524214
     66 H26        -1.5670    6.7900   -2.8950 hn        1 MOL      0.258917
     67 H27        -3.2740    7.7390   -2.1160 h1        1 MOL      0.163596
     68 H28        -2.4140    7.9220   -0.5230 h1        1 MOL      0.163596
     69 N8         -4.1450    6.3600    0.4940 n         1 MOL     -0.375861
     70 C22        -5.3180    5.7120    1.1130 c3        1 MOL     -0.130505
     71 C23        -4.9460    4.3610    1.8690 c         1 MOL      0.428803
     72 O13        -5.8710    3.6740    2.3220 o         1 MOL     -0.541814
     73 C24        -5.8380    6.6560    2.2440 c3        1 MOL      0.484299
     74 C25        -5.0230    6.7800    3.5170 c3        1 MOL     -0.269750
     75 O14        -6.1500    7.8750    1.6930 oh        1 MOL     -0.624876
     76 H29        -3.6720    7.1070    0.9930 hn        1 MOL      0.263367
     77 H30        -6.1570    5.5490    0.4490 h1        1 MOL      0.146013
     78 H31        -6.8220    6.2130    2.4280 h1        1 MOL      0.004540
     79 H32        -5.3210    8.3300    1.5400 ho        1 MOL      0.355428
     80 H33        -3.9670    6.8220    3.2480 hc        1 MOL      0.058389
     81 H34        -5.2660    7.7770    3.8940 hc        1 MOL      0.058389
     82 H35        -5.3680    6.0940    4.2810 hc        1 MOL      0.058389
     83 N9         -3.6310    3.9970    1.9600 n         1 MOL     -0.242553
     84 C26        -3.0180    2.7560    2.5470 c3        1 MOL     -0.003395
     85 C27        -2.2070    2.0120    1.4780 c         1 MOL      0.417893
     86 O15        -1.1230    2.4340    1.1650 o         1 MOL     -0.434207
     87 C28        -2.1640    3.0470    3.8220 c3        1 MOL      0.021040
     88 C29        -3.0640    3.6410    5.0040 c3        1 MOL     -0.154385
     89 C30        -1.6260    1.6790    4.3050 c3        1 MOL     -0.051755
     90 C31        -4.3190    2.8800    5.3600 c3        1 MOL     -0.093868
     91 H36        -2.9760    4.6210    1.5000 hn        1 MOL      0.205315
     92 H37        -3.8230    2.0340    2.7230 h1        1 MOL      0.053697
     93 H38        -1.4030    3.7630    3.5060 hc        1 MOL      0.049502
     94 H39        -3.4510    4.5970    4.6770 hc        1 MOL      0.048797
     95 H40        -2.4450    3.8060    5.8930 hc        1 MOL      0.048797
     96 H41        -0.6600    1.4450    3.8500 hc        1 MOL      0.024328
     97 H42        -1.5120    1.6660    5.3860 hc        1 MOL      0.024328
     98 H43        -2.2670    0.8390    4.0490 hc        1 MOL      0.024328
     99 H44        -4.0200    1.9410    5.8360 hc        1 MOL      0.033401
    100 H45        -4.8530    3.4360    6.1230 hc        1 MOL      0.033401
    101 H46        -5.0480    2.7600    4.5610 hc        1 MOL      0.033401
    102 N10        -2.5910    0.7550    1.2340 n         1 MOL     -0.350754
    103 C32        -1.9220   -0.0720    0.2350 c3        1 MOL      0.026928
    104 C33        -2.8510   -0.9620   -0.6420 c         1 MOL      0.606722
    105 O16        -2.3010   -1.8630   -1.2730 o         1 MOL     -0.561861
    106 C34        -0.7280   -0.9260    0.9400 c3        1 MOL     -0.241901
    107 C35         0.5200   -1.0560    0.1090 c         1 MOL      0.849276
    108 O17         1.2060   -2.0880    0.2930 o         1 MOL     -0.793035
    109 O18         0.9180   -0.2290   -0.7590 o         1 MOL     -0.793035
    110 H47        -3.4570    0.4570    1.6690 hn        1 MOL      0.273842
    111 H48        -1.4170    0.6410   -0.4230 h1        1 MOL      0.038012
    112 H49        -1.1030   -1.8810    1.3160 hc        1 MOL      0.099584
    113 H50        -0.3010   -0.3880    1.7850 hc        1 MOL      0.099584
    114 N11        -4.1100   -0.6450   -0.6150 n         1 MOL     -0.565026
    115 C36        -5.1970   -1.6230   -1.0140 c3        1 MOL      0.462753
    116 C37        -5.1290   -2.9550   -0.1810 c         1 MOL      0.003527
    117 O19        -5.2480   -2.8530    1.0280 o         1 MOL     -0.525620
    118 C38        -6.6370   -1.0640   -0.9820 c3        1 MOL     -0.279431
    119 C39        -7.6340   -2.0380   -1.5480 ca        1 MOL      0.053107
    120 C40        -7.9130   -2.1660   -2.9000 ca        1 MOL     -0.124018
    121 C41        -8.0950   -3.0530   -0.6290 ca        1 MOL     -0.124018
    122 C42        -8.7720   -3.1940   -3.3280 ca        1 MOL     -0.179545
    123 C43        -8.6940   -4.2330   -1.1400 ca        1 MOL     -0.179545
    124 C44        -9.0900   -4.3030   -2.4810 ca        1 MOL     -0.043623
    125 H51        -4.4430    0.1650   -0.1150 hn        1 MOL      0.259933
    126 H52        -4.9750   -1.8110   -2.0600 h1        1 MOL     -0.044403
    127 H53        -6.6210   -0.2090   -1.6570 hc        1 MOL      0.106697
    128 H54        -6.9190   -0.7180    0.0120 hc        1 MOL      0.106697
    129 H55        -7.4520   -1.4190   -3.5390 ha        1 MOL      0.117179
    130 H56        -8.0150   -2.8530    0.4280 ha        1 MOL      0.117179
    131 H57        -8.9580   -3.4230   -4.3720 ha        1 MOL      0.115430
    132 H58        -8.9590   -5.1400   -0.6090 ha        1 MOL      0.115430
    133 H59        -9.6070   -5.1310   -2.9270 ha        1 MOL      0.097982
    134 N12        -5.1280   -4.1270   -0.8090 n         1 MOL      0.670134
    135 C45        -5.2200   -5.3830   -0.1070 c3        1 MOL      0.029457
    136 C46        -4.0060   -5.7920    0.7820 c         1 MOL      0.312353
    137 O20        -4.0700   -6.6940    1.5340 o         1 MOL     -0.528021
    138 C47        -5.4560   -6.4050   -1.2010 c3        1 MOL     -0.136885
    139 C48        -4.6630   -5.8220   -2.3720 c3        1 MOL     -0.096740
    140 C49        -4.8860   -4.3260   -2.2240 c3        1 MOL     -0.256405
    141 H60        -6.0810   -5.3110    0.5630 h1        1 MOL     -0.000592
    142 H61        -5.0150   -7.3880   -1.0020 hc        1 MOL      0.047763
    143 H62        -6.5320   -6.3370   -1.3790 hc        1 MOL      0.047763
    144 H63        -3.6340   -6.0930   -2.1490 hc        1 MOL      0.063780
    145 H64        -4.9990   -6.1630   -3.3490 hc        1 MOL      0.063780
    146 H65        -4.1300   -3.6010   -2.5410 h1        1 MOL      0.040587
    147 H66        -5.7900   -4.0820   -2.7820 h1        1 MOL      0.040587
    148 N13        -2.8880   -5.0900    0.7060 n         1 MOL      0.038078
    149 C50        -1.6920   -5.5290    1.4000 c3        1 MOL     -0.365866
    150 C51        -1.6020   -5.2210    2.9000 c         1 MOL      0.515205
    151 O21        -0.6440   -5.5740    3.5760 o         1 MOL     -0.501412
    152 C52        -0.4840   -4.9490    0.7020 c3        1 MOL      0.237733
    153 C53        -0.4360   -5.3690   -0.7600 c3        1 MOL     -0.163884
    154 C54         0.9200   -5.2200   -1.3770 c         1 MOL      0.734669
    155 O22         1.8180   -5.9830   -0.9940 o         1 MOL     -0.734735
    156 O23         1.1700   -4.2900   -2.1740 o         1 MOL     -0.734735
    157 H67        -2.8630   -4.5030   -0.1160 hn        1 MOL      0.076511
    158 H68        -1.5690   -6.6060    1.3350 h1        1 MOL      0.169251
    159 H69         0.4180   -5.2310    1.2580 hc        1 MOL      0.002408
    160 H70        -0.5250   -3.8560    0.7710 hc        1 MOL      0.002408
    161 H71        -1.0870   -4.7470   -1.3760 hc        1 MOL      0.003738
    162 H72        -0.7290   -6.4050   -0.9040 hc        1 MOL      0.003738
    163 N14        -2.6040   -4.3880    3.4240 n         1 MOL     -0.217410
    164 C55        -2.7010   -3.7660    4.7290 c3        1 MOL     -0.302581
    165 H73        -3.5700   -3.1080    4.7540 h1        1 MOL      0.114000
    166 H74        -2.8070   -4.5370    5.4920 h1        1 MOL      0.114000
    167 H75        -1.8000   -3.1840    4.9230 h1        1 MOL      0.114000
    168 H76        -3.1760   -4.0260    2.6650 hn        1 MOL      0.167685
    169 Ca1         2.4810   -2.1410   -2.0000 Ca        1 MOL      1.748446
    170 O24         3.9680   -3.2790   -3.9120 oh        1 MOL     -0.858800
    171 H77         4.8780   -2.9830   -3.9060 ho        1 MOL      0.416391
    172 H78         3.9350   -3.9560   -4.5880 ho        1 MOL      0.416391
    173 O25         3.7820   -4.1720   -0.7000 oh        1 MOL     -0.858800
    174 H79         4.3430   -4.6490   -0.0840 ho        1 MOL      0.416391
    175 H80         3.1070   -4.8060   -0.9440 ho        1 MOL      0.416391
    176 O26         4.3880   -1.1340   -0.3590 oh        1 MOL     -0.858800
    177 H81         4.3450   -0.2150   -0.1210 ho        1 MOL      0.416391
    178 H82         5.2490   -1.4310   -0.0640 ho        1 MOL      0.416391
    179 O27         1.3460   -1.5550   -4.3780 oh        1 MOL     -0.858800
    180 H83         1.6040   -1.0560   -5.1610 ho        1 MOL      0.416391
    181 H84         0.3910   -1.5490   -4.3950 ho        1 MOL      0.416391
@<TRIPOS>BOND
     1    1    2 1   
     2    1    4 1   
     3    1    5 1   
     4    1    6 1   
     5    2    3 2   
     6    2    7 1   
     7    7    8 1   
     8    7   15 1   
     9    8    9 1   
    10    8   11 1   
    11    8   16 1   
    12    9   10 2   
    13    9   19 1   
    14   11   12 1   
    15   11   17 1   
    16   11   18 1   
    17   12   13 1   
    18   12   14 1   
    19   19   20 1   
    20   19   24 1   
    21   20   21 1   
    22   20   23 1   
    23   20   25 1   
    24   21   22 2   
    25   21   29 1   
    26   23   26 1   
    27   23   27 1   
    28   23   28 1   
    29   29   30 1   
    30   29   37 1   
    31   30   31 1   
    32   30   33 1   
    33   30   38 1   
    34   31   32 2   
    35   31   41 1   
    36   33   34 1   
    37   33   39 1   
    38   33   40 1   
    39   34   35 1   
    40   34   36 1   
    41   41   42 1   
    42   41   45 1   
    43   42   43 1   
    44   42   46 1   
    45   42   47 1   
    46   43   44 2   
    47   43   48 1   
    48   48   49 1   
    49   48   56 1   
    50   49   50 1   
    51   49   52 1   
    52   49   57 1   
    53   50   51 2   
    54   50   62 1   
    55   52   53 1   
    56   52   58 1   
    57   52   59 1   
    58   53   54 1   
    59   53   55 2   
    60   54   60 1   
    61   54   61 1   
    62   62   63 1   
    63   62   66 1   
    64   63   64 1   
    65   63   67 1   
    66   63   68 1   
    67   64   65 2   
    68   64   69 1   
    69   69   70 1   
    70   69   76 1   
    71   70   71 1   
    72   70   73 1   
    73   70   77 1   
    74   71   72 2   
    75   71   83 1   
    76   73   74 1   
    77   73   75 1   
    78   73   78 1   
    79   74   80 1   
    80   74   81 1   
    81   74   82 1   
    82   75   79 1   
    83   83   84 1   
    84   83   91 1   
    85   84   85 1   
    86   84   87 1   
    87   84   92 1   
    88   85   86 2   
    89   85  102 1   
    90   87   88 1   
    91   87   89 1   
    92   87   93 1   
    93   88   90 1   
    94   88   94 1   
    95   88   95 1   
    96   89   96 1   
    97   89   97 1   
    98   89   98 1   
    99   90   99 1   
   100   90  100 1   
   101   90  101 1   
   102  102  103 1   
   103  102  110 1   
   104  103  104 1   
   105  103  106 1   
   106  103  111 1   
   107  104  105 2   
   108  104  114 1   
   109  106  107 1   
   110  106  112 1   
   111  106  113 1   
   112  107  108 1   
   113  107  109 1   
   114  114  115 1   
   115  114  125 1   
   116  115  116 1   
   117  115  118 1   
   118  115  126 1   
   119  116  117 2   
   120  116  134 1   
   121  118  119 1   
   122  118  127 1   
   123  118  128 1   
   124  119  120 ar  
   125  119  121 ar  
   126  120  122 ar  
   127  120  129 1   
   128  121  123 ar  
   129  121  130 1   
   130  122  124 ar  
   131  122  131 1   
   132  123  124 ar  
   133  123  132 1   
   134  124  133 1   
   135  134  135 1   
   136  134  140 1   
   137  135  136 1   
   138  135  138 1   
   139  135  141 1   
   140  136  137 2   
   141  136  148 1   
   142  138  139 1   
   143  138  142 1   
   144  138  143 1   
   145  139  140 1   
   146  139  144 1   
   147  139  145 1   
   148  140  146 1   
   149  140  147 1   
   150  148  149 1   
   151  148  157 1   
   152  149  150 1   
   153  149  152 1   
   154  149  158 1   
   155  150  151 2   
   156  150  163 1   
   157  152  153 1   
   158  152  159 1   
   159  152  160 1   
   160  153  154 1   
   161  153  161 1   
   162  153  162 1   
   163  154  155 1   
   164  154  156 1   
   165  163  164 1   
   166  163  168 1   
   167  164  165 1   
   168  164  166 1   
   169  164  167 1   
   170  170  171 1   
   171  170  172 1   
   172  173  174 1   
   173  173  175 1   
   174  176  177 1   
   175  176  178 1   
   176  179  180 1   
   177  179  181 1   
@<TRIPOS>SUBSTRUCTURE
     1 MOL         1 TEMP              0 ****  ****    0 ROOT
