@<TRIPOS>MOLECULE
MOL
  181   177     1     0     0
SMALL
resp


@<TRIPOS>ATOM
      1 C1         11.8860   -4.8670    3.4820 c3        1 MOL     -0.341554
      2 C2         11.8120   -4.6720    1.9790 c         1 MOL      0.700581
      3 O1         11.9130   -5.6230    1.1710 o         1 MOL     -0.614099
      4 H1         10.8980   -4.7170    3.9170 hc        1 MOL      0.098033
      5 H2         12.2290   -5.8780    3.7020 hc        1 MOL      0.098033
      6 H3         12.5840   -4.1460    3.9080 hc        1 MOL      0.098033
      7 N1         11.4590   -3.5310    1.3380 n         1 MOL     -0.674985
      8 C3         11.4930   -2.1640    1.9150 c3        1 MOL      0.157399
      9 C4         12.0170   -1.0250    1.0910 c         1 MOL      0.430612
     10 O2         12.0290    0.0910    1.5930 o         1 MOL     -0.564963
     11 C5         10.0620   -1.9140    2.4330 c3        1 MOL     -0.397964
     12 C6          8.9300   -1.9510    1.4110 c         1 MOL      0.897547
     13 O3          9.0800   -2.2430    0.2410 o         1 MOL     -0.754289
     14 O4          7.7480   -1.7330    1.8570 o         1 MOL     -0.754289
     15 H4         11.1710   -3.6680    0.3720 hn        1 MOL      0.420316
     16 H5         12.2100   -2.2350    2.7270 h1        1 MOL      0.087538
     17 H6          9.9610   -1.0230    3.0540 hc        1 MOL      0.102247
     18 H7          9.8640   -2.7230    3.1390 hc        1 MOL      0.102247
     19 N2         12.3440   -1.2270   -0.1730 n         1 MOL     -0.496056
     20 C7         12.8930   -0.3140   -1.1660 c3        1 MOL      0.541658
     21 C8         11.7680    0.6150   -1.6670 c         1 MOL      0.156495
     22 O5         12.0780    1.5330   -2.4860 o         1 MOL     -0.502263
     23 C9         13.6900   -0.9890   -2.2350 c3        1 MOL     -0.231556
     24 H8         12.1210   -2.1910   -0.4000 hn        1 MOL      0.221174
     25 H9         13.6350    0.3070   -0.6800 h1        1 MOL     -0.000188
     26 H10        13.0700   -1.5700   -2.9180 hc        1 MOL      0.055006
     27 H11        14.3030   -0.2000   -2.6840 hc        1 MOL      0.055006
     28 H12        14.3530   -1.6610   -1.6770 hc        1 MOL      0.055006
     29 N3         10.5180    0.5520   -1.1930 n         1 MOL     -0.033597
     30 C10         9.4090    1.4710   -1.6050 c3        1 MOL     -0.269471
     31 C11         8.3940    1.6540   -0.4990 c         1 MOL      0.667971
     32 O6          7.8690    0.7200    0.0530 o         1 MOL     -0.604887
     33 C12         8.7730    1.0090   -2.9590 c3        1 MOL      0.106710
     34 C13         8.6870   -0.4670   -3.1950 c         1 MOL      0.578546
     35 O7          7.8460   -1.0890   -2.6180 o         1 MOL     -0.673638
     36 O8          9.4750   -1.1390   -3.8720 o         1 MOL     -0.673638
     37 H13        10.3400    0.0350   -0.3480 hn        1 MOL      0.234881
     38 H14         9.8380    2.4370   -1.8370 h1        1 MOL      0.084383
     39 H15         9.4070    1.3740   -3.7630 hc        1 MOL     -0.024257
     40 H16         7.7890    1.4770   -2.9960 hc        1 MOL     -0.024257
     41 N4          7.8760    2.9030   -0.3870 n         1 MOL     -0.464806
     42 C14         6.9350    3.2520    0.7320 c3        1 MOL     -0.494010
     43 C15         5.4660    2.8790    0.4700 c         1 MOL      0.773780
     44 O9          5.0410    2.6110   -0.6410 o         1 MOL     -0.540783
     45 H17         8.0140    3.6500   -1.0460 hn        1 MOL      0.359042
     46 H18         6.8790    4.3420    0.7820 h1        1 MOL      0.214344
     47 H19         7.2640    2.6960    1.6080 h1        1 MOL      0.214344
     48 N5          4.6840    2.8270    1.5950 n         1 MOL     -0.585322
     49 C16         3.4780    2.0510    1.6970 c3        1 MOL      0.062952
     50 C17         2.2960    3.0540    1.9920 c         1 MOL      0.645949
     51 O10         2.5640    4.0710    2.6670 o         1 MOL     -0.555709
     52 C18         3.5860    0.9100    2.6310 c3        1 MOL     -0.350192
     53 C19         4.6060   -0.0110    2.2560 c         1 MOL      0.572129
     54 N6          5.7060   -0.0030    2.9680 n         1 MOL     -0.659776
     55 O11         4.5780   -0.7460    1.2520 o         1 MOL     -0.470662
     56 H20         5.0890    3.2460    2.4220 hn        1 MOL      0.303561
     57 H21         3.2390    1.6620    0.7120 h1        1 MOL      0.067614
     58 H22         2.6870    0.3020    2.6490 hc        1 MOL      0.125548
     59 H23         3.8160    1.3210    3.6200 hc        1 MOL      0.125548
     60 H24         5.7040    0.4860    3.8530 hn        1 MOL      0.313914
     61 H25         6.5330   -0.5170    2.7140 hn        1 MOL      0.313914
     62 N7          1.0880    2.8730    1.4590 n         1 MOL     -0.618530
     63 C20         0.0550    3.8130    1.4460 c3        1 MOL      0.136251
     64 C21         0.0280    4.7130    0.2440 c         1 MOL      0.495687
     65 O12         0.9650    4.6040   -0.5630 o         1 MOL     -0.557028
     66 H26         1.0140    2.0590    0.8640 hn        1 MOL      0.377096
     67 H27         0.0310    4.3240    2.4080 h1        1 MOL      0.077321
     68 H28        -0.9060    3.2930    1.4310 h1        1 MOL      0.077321
     69 N8         -0.9900    5.4180   -0.1630 n         1 MOL     -0.340331
     70 C22        -2.1460    5.8430    0.5460 c3        1 MOL     -0.097334
     71 C23        -3.3220    4.8820    0.5070 c         1 MOL      0.608403
     72 O13        -4.1270    4.8150    1.4170 o         1 MOL     -0.554888
     73 C24        -2.6100    7.2210    0.0270 c3        1 MOL      0.332652
     74 C25        -1.5660    8.3940    0.0860 c3        1 MOL     -0.426080
     75 O14        -2.9710    7.0180   -1.3950 oh        1 MOL     -0.594448
     76 H29        -0.7670    6.0130   -0.9560 hn        1 MOL      0.266331
     77 H30        -1.9530    5.9520    1.6210 h1        1 MOL      0.054818
     78 H31        -3.4410    7.5310    0.6640 h1        1 MOL      0.029825
     79 H32        -3.4450    7.7490   -1.7890 ho        1 MOL      0.399208
     80 H33        -0.7150    8.1140   -0.5300 hc        1 MOL      0.109069
     81 H34        -2.0080    9.3240   -0.2690 hc        1 MOL      0.109069
     82 H35        -1.0850    8.5130    1.0550 hc        1 MOL      0.109069
     83 N9         -3.5470    4.2210   -0.6300 n         1 MOL     -0.546432
     84 C26        -4.7020    3.3230   -0.8830 c3        1 MOL      0.075985
     85 C27        -4.4550    1.9330   -0.2260 c         1 MOL      0.553582
     86 O15        -3.3420    1.4680   -0.1090 o         1 MOL     -0.562049
     87 C28        -4.7950    3.2220   -2.3950 c3        1 MOL     -0.014311
     88 C29        -4.8420    4.5520   -3.2010 c3        1 MOL      0.048737
     89 C30        -5.9660    2.2970   -2.9090 c3        1 MOL     -0.066554
     90 C31        -5.9920    5.5170   -2.8740 c3        1 MOL     -0.155964
     91 H36        -2.9360    4.5040   -1.3680 hn        1 MOL      0.279411
     92 H37        -5.6730    3.7490   -0.6220 h1        1 MOL      0.156564
     93 H38        -3.8710    2.7410   -2.7170 hc        1 MOL      0.055349
     94 H39        -4.7740    4.4700   -4.2830 hc        1 MOL     -0.007100
     95 H40        -3.9350    5.0940   -2.9500 hc        1 MOL     -0.007100
     96 H41        -6.9190    2.7750   -2.6850 hc        1 MOL      0.018925
     97 H42        -5.7610    2.0610   -3.9580 hc        1 MOL      0.018925
     98 H43        -5.9580    1.3070   -2.4490 hc        1 MOL      0.018925
     99 H44        -6.2830    5.5280   -1.8290 hc        1 MOL      0.017129
    100 H45        -5.8020    6.5740   -3.0680 hc        1 MOL      0.017129
    101 H46        -6.8080    5.1450   -3.5000 hc        1 MOL      0.017129
    102 N10        -5.4850    1.2590    0.3010 n         1 MOL     -0.341726
    103 C32        -6.9600    1.5430    0.3830 c3        1 MOL      0.252337
    104 C33        -7.7600    0.2350    0.4730 c         1 MOL      0.515071
    105 O16        -7.2600   -0.7880    1.0290 o         1 MOL     -0.512583
    106 C34        -7.3370    2.4700    1.6030 c3        1 MOL     -0.351537
    107 C35        -6.6940    2.2090    2.9940 c         1 MOL      0.887768
    108 O17        -5.9130    1.2620    3.1490 o         1 MOL     -0.765369
    109 O18        -6.8850    3.0340    3.9020 o         1 MOL     -0.765369
    110 H47        -5.2630    0.3560    0.7120 hn        1 MOL      0.264551
    111 H48        -7.2860    2.0520   -0.5250 h1        1 MOL     -0.060445
    112 H49        -8.4190    2.5810    1.7380 hc        1 MOL      0.029836
    113 H50        -7.1540    3.4830    1.2340 hc        1 MOL      0.029836
    114 N11        -9.0190    0.2260    0.0370 n         1 MOL     -0.435774
    115 C36        -9.9680   -0.9070   -0.1220 c3        1 MOL      0.485528
    116 C37       -10.1940   -1.3630   -1.5560 c         1 MOL      0.202498
    117 O19       -10.2260   -0.5700   -2.4790 o         1 MOL     -0.517113
    118 C38       -11.3230   -0.6110    0.4720 c3        1 MOL     -0.192236
    119 C39       -11.2390   -0.9550    2.0180 ca        1 MOL      0.200167
    120 C40       -10.5480   -0.0960    2.8530 ca        1 MOL     -0.320575
    121 C41       -11.8150   -2.0930    2.6510 ca        1 MOL     -0.320575
    122 C42       -10.3550   -0.2910    4.2290 ca        1 MOL      0.093414
    123 C43       -11.5610   -2.4640    3.9990 ca        1 MOL      0.093414
    124 C44       -10.8990   -1.4910    4.8040 ca        1 MOL     -0.317091
    125 H51        -9.4570    1.1000   -0.2120 hn        1 MOL      0.224594
    126 H52        -9.6740   -1.7810    0.4510 h1        1 MOL      0.023019
    127 H53       -12.0660   -1.2210   -0.0540 hc        1 MOL      0.048205
    128 H54       -11.6340    0.4090    0.2320 hc        1 MOL      0.048205
    129 H55       -10.1900    0.8290    2.4500 ha        1 MOL      0.114044
    130 H56       -12.3560   -2.7910    2.0410 ha        1 MOL      0.114044
    131 H57        -9.8070    0.4190    4.8340 ha        1 MOL      0.068589
    132 H58       -12.0640   -3.3460    4.3780 ha        1 MOL      0.068589
    133 H59       -10.6440   -1.7260    5.8320 ha        1 MOL      0.137958
    134 N12       -10.3320   -2.6860   -1.7440 n         1 MOL      0.091231
    135 C45       -10.2500   -3.8700   -0.8750 c3        1 MOL      0.078013
    136 C46        -8.8280   -4.1000   -0.4420 c         1 MOL      0.292118
    137 O20        -8.6750   -4.7630    0.5760 o         1 MOL     -0.535937
    138 C47       -10.8910   -5.0600   -1.6250 c3        1 MOL     -0.001141
    139 C48       -11.7430   -4.4330   -2.6290 c3        1 MOL     -0.039937
    140 C49       -10.9270   -3.2080   -2.9960 c3        1 MOL     -0.296139
    141 H60       -10.8130   -3.4900   -0.0220 h1        1 MOL     -0.029571
    142 H61       -10.0640   -5.5260   -2.1610 hc        1 MOL      0.035168
    143 H62       -11.4210   -5.7910   -1.0060 hc        1 MOL      0.035168
    144 H63       -11.9230   -5.0650   -3.5060 hc        1 MOL      0.028790
    145 H64       -12.6500   -4.1740   -2.0850 hc        1 MOL      0.028790
    146 H65       -10.1330   -3.5090   -3.6850 h1        1 MOL      0.124439
    147 H66       -11.5850   -2.5000   -3.4930 h1        1 MOL      0.124439
    148 N13        -7.7800   -3.7730   -1.1610 n         1 MOL     -0.149820
    149 C50        -6.3900   -3.9590   -0.7940 c3        1 MOL      0.072902
    150 C51        -5.9620   -5.3830   -0.5230 c         1 MOL      0.455224
    151 O21        -5.7680   -6.2420   -1.4060 o         1 MOL     -0.580334
    152 C52        -5.4920   -3.3450   -1.9150 c3        1 MOL     -0.032188
    153 C53        -5.5310   -1.8190   -1.7960 c3        1 MOL      0.029201
    154 C54        -5.0840   -1.1630   -3.0710 c         1 MOL      0.660857
    155 O22        -3.8900   -0.7880   -3.2290 o         1 MOL     -0.728820
    156 O23        -5.9810   -1.0630   -3.9500 o         1 MOL     -0.728820
    157 H67        -7.9890   -3.3140   -2.0370 hn        1 MOL      0.179201
    158 H68        -6.1980   -3.4930    0.1740 h1        1 MOL      0.071115
    159 H69        -5.9320   -3.6690   -2.8570 hc        1 MOL      0.020499
    160 H70        -4.4780   -3.7120   -1.8590 hc        1 MOL      0.020499
    161 H71        -4.7320   -1.5160   -1.1080 hc        1 MOL     -0.056007
    162 H72        -6.4800   -1.3860   -1.4820 hc        1 MOL     -0.056007
    163 N14        -5.8010   -5.8920    0.7710 n         1 MOL     -0.368425
    164 C55        -5.9420   -5.1190    2.0300 c3        1 MOL     -0.103652
    165 H73        -6.9960   -5.0640    2.3060 h1        1 MOL      0.068740
    166 H74        -5.3850   -5.6140    2.8260 h1        1 MOL      0.068740
    167 H75        -5.5520   -4.1120    1.8840 h1        1 MOL      0.068740
    168 H76        -5.5160   -6.8520    0.8840 hn        1 MOL      0.268772
    169 Ca1         6.5110   -1.7130   -0.3970 Ca        1 MOL      1.755282
    170 O24         5.8210   -3.8200    1.1790 oh        1 MOL     -0.880440
    171 H77         4.9830   -4.2080    1.4310 ho        1 MOL      0.431593
    172 H78         6.4380   -4.5530    1.1740 ho        1 MOL      0.431593
    173 O25         4.0130   -3.0000   -1.5870 oh        1 MOL     -0.880440
    174 H79         3.0760   -2.8350   -1.5310 ho        1 MOL      0.431593
    175 H80         4.1410   -3.4410   -2.4330 ho        1 MOL      0.431593
    176 O26         7.0420   -3.8410   -1.7850 oh        1 MOL     -0.880440
    177 H81         6.7110   -3.8460   -2.6830 ho        1 MOL      0.431593
    178 H82         7.6460   -4.5740   -1.7400 ho        1 MOL      0.431593
    179 O27         4.7540   -0.0700   -1.6240 oh        1 MOL     -0.880440
    180 H83         5.2820    0.7250   -1.5540 ho        1 MOL      0.431593
    181 H84         4.0150    0.1930   -2.1690 ho        1 MOL      0.431593
@<TRIPOS>BOND
     1    1    2 1   
     2    1    4 1   
     3    1    5 1   
     4    1    6 1   
     5    2    3 2   
     6    2    7 1   
     7    7    8 1   
     8    7   15 1   
     9    8    9 1   
    10    8   11 1   
    11    8   16 1   
    12    9   10 2   
    13    9   19 1   
    14   11   12 1   
    15   11   17 1   
    16   11   18 1   
    17   12   13 1   
    18   12   14 1   
    19   19   20 1   
    20   19   24 1   
    21   20   21 1   
    22   20   23 1   
    23   20   25 1   
    24   21   22 2   
    25   21   29 1   
    26   23   26 1   
    27   23   27 1   
    28   23   28 1   
    29   29   30 1   
    30   29   37 1   
    31   30   31 1   
    32   30   33 1   
    33   30   38 1   
    34   31   32 2   
    35   31   41 1   
    36   33   34 1   
    37   33   39 1   
    38   33   40 1   
    39   34   35 1   
    40   34   36 1   
    41   41   42 1   
    42   41   45 1   
    43   42   43 1   
    44   42   46 1   
    45   42   47 1   
    46   43   44 2   
    47   43   48 1   
    48   48   49 1   
    49   48   56 1   
    50   49   50 1   
    51   49   52 1   
    52   49   57 1   
    53   50   51 2   
    54   50   62 1   
    55   52   53 1   
    56   52   58 1   
    57   52   59 1   
    58   53   54 1   
    59   53   55 2   
    60   54   60 1   
    61   54   61 1   
    62   62   63 1   
    63   62   66 1   
    64   63   64 1   
    65   63   67 1   
    66   63   68 1   
    67   64   65 2   
    68   64   69 1   
    69   69   70 1   
    70   69   76 1   
    71   70   71 1   
    72   70   73 1   
    73   70   77 1   
    74   71   72 2   
    75   71   83 1   
    76   73   74 1   
    77   73   75 1   
    78   73   78 1   
    79   74   80 1   
    80   74   81 1   
    81   74   82 1   
    82   75   79 1   
    83   83   84 1   
    84   83   91 1   
    85   84   85 1   
    86   84   87 1   
    87   84   92 1   
    88   85   86 2   
    89   85  102 1   
    90   87   88 1   
    91   87   89 1   
    92   87   93 1   
    93   88   90 1   
    94   88   94 1   
    95   88   95 1   
    96   89   96 1   
    97   89   97 1   
    98   89   98 1   
    99   90   99 1   
   100   90  100 1   
   101   90  101 1   
   102  102  103 1   
   103  102  110 1   
   104  103  104 1   
   105  103  106 1   
   106  103  111 1   
   107  104  105 2   
   108  104  114 1   
   109  106  107 1   
   110  106  112 1   
   111  106  113 1   
   112  107  108 1   
   113  107  109 1   
   114  114  115 1   
   115  114  125 1   
   116  115  116 1   
   117  115  118 1   
   118  115  126 1   
   119  116  117 2   
   120  116  134 1   
   121  118  119 1   
   122  118  127 1   
   123  118  128 1   
   124  119  120 ar  
   125  119  121 ar  
   126  120  122 ar  
   127  120  129 1   
   128  121  123 ar  
   129  121  130 1   
   130  122  124 ar  
   131  122  131 1   
   132  123  124 ar  
   133  123  132 1   
   134  124  133 1   
   135  134  135 1   
   136  134  140 1   
   137  135  136 1   
   138  135  138 1   
   139  135  141 1   
   140  136  137 2   
   141  136  148 1   
   142  138  139 1   
   143  138  142 1   
   144  138  143 1   
   145  139  140 1   
   146  139  144 1   
   147  139  145 1   
   148  140  146 1   
   149  140  147 1   
   150  148  149 1   
   151  148  157 1   
   152  149  150 1   
   153  149  152 1   
   154  149  158 1   
   155  150  151 2   
   156  150  163 1   
   157  152  153 1   
   158  152  159 1   
   159  152  160 1   
   160  153  154 1   
   161  153  161 1   
   162  153  162 1   
   163  154  155 1   
   164  154  156 1   
   165  163  164 1   
   166  163  168 1   
   167  164  165 1   
   168  164  166 1   
   169  164  167 1   
   170  170  171 1   
   171  170  172 1   
   172  173  174 1   
   173  173  175 1   
   174  176  177 1   
   175  176  178 1   
   176  179  180 1   
   177  179  181 1   
@<TRIPOS>SUBSTRUCTURE
     1 MOL         1 TEMP              0 ****  ****    0 ROOT
