@<TRIPOS>MOLECULE
MOL
  181   177     1     0     0
SMALL
resp


@<TRIPOS>ATOM
      1 C1          9.4710    7.5620   -0.4940 c3        1 MOL     -0.377547
      2 C2          8.5150    6.5140    0.0820 c         1 MOL      0.704334
      3 O1          7.7180    6.8080    0.9710 o         1 MOL     -0.594460
      4 H1          9.0370    8.5550   -0.3700 hc        1 MOL      0.096783
      5 H2         10.4240    7.5140    0.0340 hc        1 MOL      0.096783
      6 H3          9.6310    7.3660   -1.5530 hc        1 MOL      0.096783
      7 N1          8.5720    5.2190   -0.2400 n         1 MOL     -0.645417
      8 C3          9.3030    4.5690   -1.3330 c3        1 MOL      0.388806
      9 C4         10.3030    3.5510   -0.8460 c         1 MOL      0.300651
     10 O2         11.0770    3.0100   -1.6340 o         1 MOL     -0.539348
     11 C5          8.2850    3.9200   -2.2850 c3        1 MOL     -0.389268
     12 C6          7.2420    2.9290   -1.6820 c         1 MOL      0.759252
     13 O3          6.1920    2.7100   -2.3200 o         1 MOL     -0.729781
     14 O4          7.3400    2.4670   -0.5070 o         1 MOL     -0.729781
     15 H4          7.8930    4.6560    0.2450 hn        1 MOL      0.365085
     16 H5          9.7660    5.3040   -1.9890 h1        1 MOL      0.010119
     17 H6          8.8300    3.4000   -3.0640 hc        1 MOL      0.088817
     18 H7          7.6860    4.7420   -2.6810 hc        1 MOL      0.088817
     19 N2         10.3010    3.1610    0.3960 n         1 MOL     -0.344168
     20 C7         11.3680    2.3610    1.0540 c3        1 MOL      0.133014
     21 C8         11.0050    0.8630    1.2280 c         1 MOL      0.487290
     22 O5         11.9110    0.1260    1.3740 o         1 MOL     -0.585114
     23 C9         11.5920    3.0940    2.3910 c3        1 MOL     -0.214036
     24 H8          9.5980    3.5260    1.0160 hn        1 MOL      0.243292
     25 H9         12.3080    2.4420    0.4910 h1        1 MOL      0.079410
     26 H10        10.7280    3.0200    3.0420 hc        1 MOL      0.060096
     27 H11        12.4730    2.7560    2.9440 hc        1 MOL      0.060096
     28 H12        11.8070    4.1460    2.1860 hc        1 MOL      0.060096
     29 N3          9.7450    0.5180    1.2020 n         1 MOL     -0.185794
     30 C10         9.2300   -0.8040    1.4970 c3        1 MOL     -0.041404
     31 C11         8.5790   -1.3530    0.1830 c         1 MOL      0.406175
     32 O6          8.1670   -0.5140   -0.6910 o         1 MOL     -0.495903
     33 C12         8.2610   -0.6560    2.6950 c3        1 MOL     -0.205040
     34 C13         6.9460    0.1820    2.4680 c         1 MOL      0.666974
     35 O7          6.6230    0.9960    3.3960 o         1 MOL     -0.671323
     36 O8          6.2650    0.0360    1.4150 o         1 MOL     -0.671323
     37 H13         9.0730    1.2640    1.1810 hn        1 MOL      0.221597
     38 H14        10.0060   -1.5340    1.6960 h1        1 MOL      0.072845
     39 H15         8.8800   -0.2450    3.4850 hc        1 MOL      0.052082
     40 H16         7.8630   -1.6320    2.9770 hc        1 MOL      0.052082
     41 N4          8.4520   -2.6880    0.0320 n         1 MOL     -0.259329
     42 C14         7.9570   -3.3680   -1.1630 c3        1 MOL     -0.169507
     43 C15         6.4930   -3.1020   -1.4040 c         1 MOL      0.670257
     44 O9          5.9190   -2.1180   -0.9560 o         1 MOL     -0.629602
     45 H17         9.0110   -3.3270    0.5840 hn        1 MOL      0.255971
     46 H18         8.0480   -4.4360   -0.9790 h1        1 MOL      0.092815
     47 H19         8.5850   -3.1510   -2.0330 h1        1 MOL      0.092815
     48 N5          5.8650   -3.9310   -2.1830 n         1 MOL     -0.543709
     49 C16         4.5080   -3.7590   -2.5370 c3        1 MOL      0.189953
     50 C17         3.5170   -4.3020   -1.4730 c         1 MOL      0.699843
     51 O10         3.6910   -5.3680   -0.8790 o         1 MOL     -0.591096
     52 C18         4.3330   -4.5320   -3.7880 c3        1 MOL     -0.401972
     53 C19         2.8760   -4.5100   -4.3450 c         1 MOL      0.701022
     54 N6          2.1820   -5.6490   -4.3270 n         1 MOL     -0.838423
     55 O11         2.3460   -3.4400   -4.5670 o         1 MOL     -0.536837
     56 H20         6.3000   -4.8340   -2.3390 hn        1 MOL      0.305903
     57 H21         4.2230   -2.7140   -2.5550 h1        1 MOL      0.035460
     58 H22         4.5360   -5.5700   -3.5290 hc        1 MOL      0.095814
     59 H23         5.0220   -4.2180   -4.5730 hc        1 MOL      0.095814
     60 H24         2.6120   -6.5680   -4.3060 hn        1 MOL      0.386192
     61 H25         1.1750   -5.6510   -4.3830 hn        1 MOL      0.386192
     62 N7          2.4690   -3.5270   -1.2900 n         1 MOL     -0.482145
     63 C20         1.4990   -3.8320   -0.2170 c3        1 MOL     -0.009423
     64 C21         1.9530   -3.5360    1.1900 c         1 MOL      0.406102
     65 O12         3.0530   -3.0150    1.3570 o         1 MOL     -0.537153
     66 H26         2.3040   -2.7280   -1.8900 hn        1 MOL      0.342509
     67 H27         1.1860   -4.8760   -0.3030 h1        1 MOL      0.085243
     68 H28         0.5280   -3.3820   -0.4190 h1        1 MOL      0.085243
     69 N8          1.1990   -3.8770    2.1900 n         1 MOL     -0.204801
     70 C22        -0.1410   -4.5370    2.1390 c3        1 MOL     -0.198173
     71 C23        -1.3330   -3.6140    2.0070 c         1 MOL      0.644342
     72 O13        -2.4250   -4.0280    1.8790 o         1 MOL     -0.613445
     73 C24        -0.3500   -5.4110    3.3780 c3        1 MOL      0.390542
     74 C25         0.4680   -6.7790    3.2380 c3        1 MOL     -0.527761
     75 O14         0.0160   -4.7140    4.5740 oh        1 MOL     -0.590642
     76 H29         1.6380   -3.7310    3.0850 hn        1 MOL      0.257300
     77 H30        -0.2060   -5.2850    1.3490 h1        1 MOL      0.121913
     78 H31        -1.3930   -5.7010    3.4510 h1        1 MOL      0.024065
     79 H32        -0.2680   -5.2280    5.3370 ho        1 MOL      0.386499
     80 H33         0.1980   -7.1820    2.2610 hc        1 MOL      0.131980
     81 H34         1.5290   -6.6480    3.4590 hc        1 MOL      0.131980
     82 H35         0.0770   -7.4920    3.9580 hc        1 MOL      0.131980
     83 N9         -1.2420   -2.3170    1.9500 n         1 MOL     -0.394068
     84 C26        -2.4190   -1.4230    2.0360 c3        1 MOL      0.109763
     85 C27        -2.6390   -0.6060    0.7130 c         1 MOL      0.356587
     86 O15        -1.6590   -0.0660    0.2000 o         1 MOL     -0.542043
     87 C28        -2.3320   -0.4330    3.1530 c3        1 MOL      0.239145
     88 C29        -1.7960   -0.9170    4.5590 c3        1 MOL      0.051013
     89 C30        -3.6140    0.3560    3.3830 c3        1 MOL     -0.389326
     90 C31        -2.4520   -2.2040    5.1250 c3        1 MOL     -0.223257
     91 H36        -0.3150   -1.9550    2.1160 hn        1 MOL      0.209873
     92 H37        -3.3190   -1.9900    2.2520 h1        1 MOL      0.108372
     93 H38        -1.5800    0.2910    2.8510 hc        1 MOL     -0.060226
     94 H39        -1.8110   -0.0880    5.2640 hc        1 MOL     -0.016997
     95 H40        -0.7700   -1.1640    4.2940 hc        1 MOL     -0.016997
     96 H41        -3.4330    1.1510    4.1140 hc        1 MOL      0.112491
     97 H42        -3.9300    0.8260    2.4530 hc        1 MOL      0.112491
     98 H43        -4.3550   -0.3110    3.8070 hc        1 MOL      0.112491
     99 H44        -3.4930   -2.0070    5.3530 hc        1 MOL      0.037045
    100 H45        -2.3660   -2.9740    4.3520 hc        1 MOL      0.037045
    101 H46        -1.9590   -2.4980    6.0530 hc        1 MOL      0.037045
    102 N10        -3.8220   -0.5590    0.0930 n         1 MOL     -0.230259
    103 C32        -4.9800   -1.3480    0.3170 c3        1 MOL      0.197176
    104 C33        -6.2810   -0.5310   -0.1510 c         1 MOL      0.402053
    105 O16        -6.1690    0.4410   -0.8920 o         1 MOL     -0.452149
    106 C34        -4.9340   -2.7160   -0.4500 c3        1 MOL     -0.080630
    107 C35        -4.5090   -2.5430   -1.8630 c         1 MOL      0.569288
    108 O17        -3.2810   -2.3450   -2.1180 o         1 MOL     -0.685408
    109 O18        -5.3900   -2.4050   -2.7480 o         1 MOL     -0.685408
    110 H47        -3.9810    0.0790   -0.6730 hn        1 MOL      0.258829
    111 H48        -5.0810   -1.5530    1.3870 h1        1 MOL     -0.053059
    112 H49        -5.8970   -3.1790   -0.2470 hc        1 MOL     -0.020538
    113 H50        -4.1560   -3.3760   -0.0610 hc        1 MOL     -0.020538
    114 N11        -7.4250   -0.9870    0.2870 n         1 MOL     -0.462127
    115 C36        -8.7670   -0.5920   -0.1870 c3        1 MOL      0.325960
    116 C37        -9.4500    0.2510    0.9050 c         1 MOL      0.211253
    117 O19        -9.2580    0.0620    2.1420 o         1 MOL     -0.495638
    118 C38        -9.5460   -1.8590   -0.6490 c3        1 MOL     -0.035565
    119 C39       -10.7890   -1.6200   -1.4730 ca        1 MOL      0.110780
    120 C40       -12.0660   -1.5870   -0.8760 ca        1 MOL     -0.205904
    121 C41       -10.6530   -1.4290   -2.8620 ca        1 MOL     -0.205904
    122 C42       -13.2100   -1.2330   -1.6130 ca        1 MOL     -0.142587
    123 C43       -11.8280   -1.1170   -3.6610 ca        1 MOL     -0.142587
    124 C44       -13.0790   -0.9440   -3.0070 ca        1 MOL     -0.083098
    125 H51        -7.3220   -1.7170    0.9760 hn        1 MOL      0.289738
    126 H52        -8.6560   -0.0270   -1.1200 h1        1 MOL      0.077166
    127 H53        -9.8720   -2.5280    0.1360 hc        1 MOL      0.006440
    128 H54        -8.8070   -2.3750   -1.2580 hc        1 MOL      0.006440
    129 H55       -12.1420   -1.6280    0.2030 ha        1 MOL      0.153652
    130 H56        -9.7040   -1.5910   -3.3490 ha        1 MOL      0.153652
    131 H57       -14.1440   -1.0570   -1.1190 ha        1 MOL      0.123193
    132 H58       -11.7610   -1.0310   -4.7420 ha        1 MOL      0.123193
    133 H59       -13.9990   -0.7030   -3.5250 ha        1 MOL      0.080582
    134 N12       -10.3300    1.2190    0.5960 n         1 MOL      0.040992
    135 C45       -10.4660    1.7860   -0.7410 c3        1 MOL     -0.029638
    136 C46        -9.1690    2.6350   -1.1240 c         1 MOL      0.367845
    137 O20        -8.5930    2.4430   -2.1490 o         1 MOL     -0.524632
    138 C47       -11.6920    2.7440   -0.7030 c3        1 MOL      0.103905
    139 C48       -12.4480    2.3250    0.5220 c3        1 MOL      0.116712
    140 C49       -11.4250    1.7140    1.4940 c3        1 MOL     -0.268853
    141 H60       -10.6520    1.0100   -1.4840 h1        1 MOL      0.052629
    142 H61       -11.3000    3.7440   -0.4890 hc        1 MOL     -0.024058
    143 H62       -12.3230    2.7770   -1.5860 hc        1 MOL     -0.024058
    144 H63       -13.0910    3.1080    0.9040 hc        1 MOL     -0.035061
    145 H64       -13.1000    1.5330    0.1540 hc        1 MOL     -0.035061
    146 H65       -11.0400    2.4730    2.1880 h1        1 MOL      0.111387
    147 H66       -11.8390    0.8650    2.0330 h1        1 MOL      0.111387
    148 N13        -8.6280    3.3930   -0.1840 n         1 MOL     -0.327813
    149 C50        -7.3560    4.1390   -0.2750 c3        1 MOL      0.291286
    150 C51        -7.6450    5.4350   -1.0660 c         1 MOL      0.335628
    151 O21        -8.0960    6.3990   -0.4370 o         1 MOL     -0.569756
    152 C52        -6.8260    4.4170    1.1380 c3        1 MOL     -0.004449
    153 C53        -6.5810    3.1330    1.9940 c3        1 MOL     -0.015382
    154 C54        -6.0370    3.4170    3.3930 c         1 MOL      0.716754
    155 O22        -6.1300    2.5020    4.2350 o         1 MOL     -0.741689
    156 O23        -5.5410    4.5030    3.7140 o         1 MOL     -0.741689
    157 H67        -9.1430    3.4460    0.6940 hn        1 MOL      0.263795
    158 H68        -6.5700    3.5750   -0.7740 h1        1 MOL      0.012734
    159 H69        -7.6710    4.9300    1.6170 hc        1 MOL     -0.009615
    160 H70        -5.9600    5.0890    1.1080 hc        1 MOL     -0.009615
    161 H71        -5.9410    2.3760    1.5330 hc        1 MOL     -0.056679
    162 H72        -7.5150    2.6100    2.1830 hc        1 MOL     -0.056679
    163 N14        -7.2770    5.6370   -2.3170 n         1 MOL     -0.276815
    164 C55        -6.6420    4.6960   -3.2660 c3        1 MOL     -0.161436
    165 H73        -6.4470    3.7500   -2.7620 h1        1 MOL      0.084656
    166 H74        -7.3090    4.5250   -4.1110 h1        1 MOL      0.084656
    167 H75        -5.7020    5.1180   -3.6240 h1        1 MOL      0.084656
    168 H76        -7.3620    6.5560   -2.7190 hn        1 MOL      0.248723
    169 Ca1         5.7510    0.4670   -1.0730 Ca        1 MOL      1.816042
    170 O24         3.8400    0.5520   -2.9670 oh        1 MOL     -0.874912
    171 H77         3.0940    0.0120   -3.1990 ho        1 MOL      0.426886
    172 H78         3.6530    1.4070   -3.3630 ho        1 MOL      0.426886
    173 O25         7.4200    0.1940   -3.5240 oh        1 MOL     -0.874912
    174 O26         3.5520   -0.6410    0.0060 oh        1 MOL     -0.874912
    175 H79         6.9030    0.4390   -4.2930 ho        1 MOL      0.426886
    176 H80         2.6020   -0.6210    0.0980 ho        1 MOL      0.426886
    177 H81         8.2750   -0.0290   -3.8810 ho        1 MOL      0.426886
    178 H82         3.8310   -1.3800    0.5530 ho        1 MOL      0.426886
    179 O27         4.1400    2.2970   -0.0090 oh        1 MOL     -0.874912
    180 H83         3.3400    2.7070   -0.3550 ho        1 MOL      0.426886
    181 H84         4.2440    2.6940    0.8520 ho        1 MOL      0.426886
@<TRIPOS>BOND
     1    1    2 1   
     2    1    4 1   
     3    1    5 1   
     4    1    6 1   
     5    2    3 2   
     6    2    7 1   
     7    7    8 1   
     8    7   15 1   
     9    8    9 1   
    10    8   11 1   
    11    8   16 1   
    12    9   10 2   
    13    9   19 1   
    14   11   12 1   
    15   11   17 1   
    16   11   18 1   
    17   12   13 1   
    18   12   14 1   
    19   19   20 1   
    20   19   24 1   
    21   20   21 1   
    22   20   23 1   
    23   20   25 1   
    24   21   22 2   
    25   21   29 1   
    26   23   26 1   
    27   23   27 1   
    28   23   28 1   
    29   29   30 1   
    30   29   37 1   
    31   30   31 1   
    32   30   33 1   
    33   30   38 1   
    34   31   32 2   
    35   31   41 1   
    36   33   34 1   
    37   33   39 1   
    38   33   40 1   
    39   34   35 1   
    40   34   36 1   
    41   41   42 1   
    42   41   45 1   
    43   42   43 1   
    44   42   46 1   
    45   42   47 1   
    46   43   44 2   
    47   43   48 1   
    48   48   49 1   
    49   48   56 1   
    50   49   50 1   
    51   49   52 1   
    52   49   57 1   
    53   50   51 2   
    54   50   62 1   
    55   52   53 1   
    56   52   58 1   
    57   52   59 1   
    58   53   54 1   
    59   53   55 2   
    60   54   60 1   
    61   54   61 1   
    62   62   63 1   
    63   62   66 1   
    64   63   64 1   
    65   63   67 1   
    66   63   68 1   
    67   64   65 2   
    68   64   69 1   
    69   69   70 1   
    70   69   76 1   
    71   70   71 1   
    72   70   73 1   
    73   70   77 1   
    74   71   72 2   
    75   71   83 1   
    76   73   74 1   
    77   73   75 1   
    78   73   78 1   
    79   74   80 1   
    80   74   81 1   
    81   74   82 1   
    82   75   79 1   
    83   83   84 1   
    84   83   91 1   
    85   84   85 1   
    86   84   87 1   
    87   84   92 1   
    88   85   86 2   
    89   85  102 1   
    90   87   88 1   
    91   87   89 1   
    92   87   93 1   
    93   88   90 1   
    94   88   94 1   
    95   88   95 1   
    96   89   96 1   
    97   89   97 1   
    98   89   98 1   
    99   90   99 1   
   100   90  100 1   
   101   90  101 1   
   102  102  103 1   
   103  102  110 1   
   104  103  104 1   
   105  103  106 1   
   106  103  111 1   
   107  104  105 2   
   108  104  114 1   
   109  106  107 1   
   110  106  112 1   
   111  106  113 1   
   112  107  108 1   
   113  107  109 1   
   114  114  115 1   
   115  114  125 1   
   116  115  116 1   
   117  115  118 1   
   118  115  126 1   
   119  116  117 2   
   120  116  134 1   
   121  118  119 1   
   122  118  127 1   
   123  118  128 1   
   124  119  120 ar  
   125  119  121 ar  
   126  120  122 ar  
   127  120  129 1   
   128  121  123 ar  
   129  121  130 1   
   130  122  124 ar  
   131  122  131 1   
   132  123  124 ar  
   133  123  132 1   
   134  124  133 1   
   135  134  135 1   
   136  134  140 1   
   137  135  136 1   
   138  135  138 1   
   139  135  141 1   
   140  136  137 2   
   141  136  148 1   
   142  138  139 1   
   143  138  142 1   
   144  138  143 1   
   145  139  140 1   
   146  139  144 1   
   147  139  145 1   
   148  140  146 1   
   149  140  147 1   
   150  148  149 1   
   151  148  157 1   
   152  149  150 1   
   153  149  152 1   
   154  149  158 1   
   155  150  151 2   
   156  150  163 1   
   157  152  153 1   
   158  152  159 1   
   159  152  160 1   
   160  153  154 1   
   161  153  161 1   
   162  153  162 1   
   163  154  155 1   
   164  154  156 1   
   165  163  164 1   
   166  163  168 1   
   167  164  165 1   
   168  164  166 1   
   169  164  167 1   
   170  170  171 1   
   171  170  172 1   
   172  173  175 1   
   173  173  177 1   
   174  174  176 1   
   175  174  178 1   
   176  179  180 1   
   177  179  181 1   
@<TRIPOS>SUBSTRUCTURE
     1 MOL         1 TEMP              0 ****  ****    0 ROOT
