@<TRIPOS>MOLECULE
MOL
  181   177     1     0     0
SMALL
resp


@<TRIPOS>ATOM
      1 C1          4.1110   -2.3380    3.2010 c3        1 MOL     -0.363683
      2 C2          5.4650   -1.8230    2.7180 c         1 MOL      0.722726
      3 O1          5.5920   -0.7460    2.1590 o         1 MOL     -0.603194
      4 H1          3.7180   -1.6670    3.9650 hc        1 MOL      0.095609
      5 H2          3.4160   -2.3770    2.3620 hc        1 MOL      0.095609
      6 H3          4.2300   -3.3370    3.6220 hc        1 MOL      0.095609
      7 N1          6.5620   -2.5390    2.8980 n         1 MOL     -0.626569
      8 C3          7.9290   -2.0880    2.7720 c3        1 MOL      0.332590
      9 C4          8.3480   -1.8970    1.2770 c         1 MOL      0.430655
     10 O2          8.4000   -2.8590    0.4990 o         1 MOL     -0.502020
     11 C5          8.9210   -3.0410    3.5310 c3        1 MOL     -0.441413
     12 C6         10.3780   -2.5760    3.4720 c         1 MOL      0.859156
     13 O3         10.5870   -1.4130    3.5660 o         1 MOL     -0.769958
     14 O4         11.3210   -3.4190    3.4950 o         1 MOL     -0.769958
     15 H4          6.3820   -3.5020    3.1200 hn        1 MOL      0.323538
     16 H5          7.9710   -1.0740    3.1930 h1        1 MOL      0.009545
     17 H6          8.9100   -4.0580    3.1500 hc        1 MOL      0.072197
     18 H7          8.7280   -3.0780    4.6040 hc        1 MOL      0.072197
     19 N2          8.6150   -0.6020    0.8660 n         1 MOL     -0.329767
     20 C7          8.7660   -0.2720   -0.5250 c3        1 MOL      0.081494
     21 C8          7.4530   -0.3580   -1.3930 c         1 MOL      0.288680
     22 O5          7.5580   -0.2980   -2.6370 o         1 MOL     -0.509645
     23 C9          9.4840    1.0630   -0.6260 c3        1 MOL     -0.272045
     24 H8          8.6300    0.1770    1.5070 hn        1 MOL      0.249955
     25 H9          9.4350   -1.0770   -0.8380 h1        1 MOL      0.104301
     26 H10        10.4630    0.8720   -0.1760 hc        1 MOL      0.074370
     27 H11         9.5840    1.3500   -1.6630 hc        1 MOL      0.074370
     28 H12         9.1170    1.9700   -0.1320 hc        1 MOL      0.074370
     29 N3          6.2710   -0.4770   -0.7370 n         1 MOL     -0.135516
     30 C10         5.0060   -0.7650   -1.4500 c3        1 MOL      0.334547
     31 C11         4.6820    0.3620   -2.4630 c         1 MOL      0.382233
     32 O6          4.3000    0.0620   -3.5690 o         1 MOL     -0.463762
     33 C12         5.0240   -2.1870   -1.9310 c3        1 MOL     -0.020330
     34 C13         3.6740   -2.8810   -1.9220 c         1 MOL      0.568148
     35 O7          3.4920   -3.9790   -2.5390 o         1 MOL     -0.689328
     36 O8          2.6990   -2.3500   -1.3190 o         1 MOL     -0.689328
     37 H13         6.3300   -0.4250    0.2710 hn        1 MOL      0.095717
     38 H14         4.2220   -0.6280   -0.7080 h1        1 MOL     -0.038518
     39 H15         5.7390   -2.7240   -1.3050 hc        1 MOL     -0.002590
     40 H16         5.4390   -2.2180   -2.9440 hc        1 MOL     -0.002590
     41 N4          4.9840    1.6570   -2.1450 n         1 MOL     -0.372213
     42 C14         5.1610    2.8090   -3.0850 c3        1 MOL     -0.051174
     43 C15         3.9090    3.6300   -3.2910 c         1 MOL      0.571254
     44 O9          4.0440    4.8000   -3.7450 o         1 MOL     -0.597959
     45 H17         5.2210    1.8190   -1.1750 hn        1 MOL      0.222305
     46 H18         5.5170    2.5160   -4.0690 h1        1 MOL      0.091060
     47 H19         5.8870    3.5430   -2.7510 h1        1 MOL      0.091060
     48 N5          2.7480    3.0930   -2.9980 n         1 MOL     -0.480626
     49 C16         1.4290    3.7460   -3.2050 c3        1 MOL      0.184661
     50 C17         1.1790    4.9000   -2.2470 c         1 MOL      0.495694
     51 O10         1.6330    4.9620   -1.0480 o         1 MOL     -0.510580
     52 C18         0.3060    2.7090   -3.0900 c3        1 MOL     -0.388455
     53 C19        -1.0690    3.3310   -3.2820 c         1 MOL      0.664257
     54 N6         -1.8950    3.3420   -2.2750 n         1 MOL     -0.689080
     55 O11        -1.4180    3.8270   -4.3070 o         1 MOL     -0.603620
     56 H20         2.7420    2.1210   -2.7020 hn        1 MOL      0.275005
     57 H21         1.4450    4.2410   -4.1740 h1        1 MOL      0.034809
     58 H22         0.4320    2.2010   -2.1310 hc        1 MOL      0.151883
     59 H23         0.4750    1.9750   -3.8740 hc        1 MOL      0.151883
     60 H24        -1.5670    3.1420   -1.3350 hn        1 MOL      0.331092
     61 H25        -2.7750    3.8110   -2.4340 hn        1 MOL      0.331092
     62 N7          0.4040    5.9500   -2.7140 n         1 MOL     -0.430509
     63 C20         0.1020    7.1770   -1.9320 c3        1 MOL     -0.027809
     64 C21        -0.9780    6.7590   -0.8900 c         1 MOL      0.398087
     65 O12        -2.0800    6.3210   -1.1970 o         1 MOL     -0.477464
     66 H26        -0.0460    5.8880   -3.6150 hn        1 MOL      0.302223
     67 H27        -0.2420    7.9700   -2.5900 h1        1 MOL      0.078057
     68 H28         0.9800    7.6090   -1.4630 h1        1 MOL      0.078057
     69 N8         -0.5700    6.8580    0.3640 n         1 MOL     -0.230660
     70 C22        -1.5080    7.1480    1.4310 c3        1 MOL     -0.384858
     71 C23        -1.9650    5.8990    2.1040 c         1 MOL      0.491504
     72 O13        -3.0320    5.9090    2.7480 o         1 MOL     -0.553813
     73 C24        -1.1880    8.2340    2.4800 c3        1 MOL      0.520255
     74 C25        -0.2900    7.8470    3.6510 c3        1 MOL     -0.374848
     75 O14        -0.5690    9.3370    1.8370 oh        1 MOL     -0.652755
     76 H29         0.3510    7.2320    0.4920 hn        1 MOL      0.251254
     77 H30        -2.3480    7.5730    0.8760 h1        1 MOL      0.181399
     78 H31        -2.1440    8.6090    2.8650 h1        1 MOL      0.044498
     79 H32         0.3000    9.0690    1.5140 ho        1 MOL      0.372487
     80 H33         0.7120    7.4690    3.4550 hc        1 MOL      0.089746
     81 H34        -0.2710    8.6930    4.3390 hc        1 MOL      0.089746
     82 H35        -0.8050    7.1050    4.2700 hc        1 MOL      0.089746
     83 N9         -1.1230    4.8250    2.0260 n         1 MOL     -0.153211
     84 C26        -1.3290    3.4700    2.4070 c3        1 MOL     -0.005169
     85 C27        -1.2570    2.4420    1.2690 c         1 MOL      0.457408
     86 O15        -0.6850    2.7330    0.1700 o         1 MOL     -0.441082
     87 C28        -0.4760    3.0260    3.5500 c3        1 MOL      0.245852
     88 C29         0.9680    2.7350    3.2550 c3        1 MOL     -0.118173
     89 C30        -0.5190    4.0220    4.7120 c3        1 MOL     -0.451994
     90 C31         1.7650    3.9060    2.7350 c3        1 MOL     -0.225646
     91 H36        -0.2660    4.9410    1.5090 hn        1 MOL      0.170705
     92 H37        -2.3490    3.4770    2.7720 h1        1 MOL      0.046174
     93 H38        -0.8600    2.0450    3.8030 hc        1 MOL     -0.038987
     94 H39         0.9810    1.9740    2.4790 hc        1 MOL      0.065640
     95 H40         1.4400    2.3450    4.1530 hc        1 MOL      0.065640
     96 H41        -0.1140    4.9940    4.4500 hc        1 MOL      0.107978
     97 H42        -1.4730    3.9870    5.2400 hc        1 MOL      0.107978
     98 H43         0.2810    3.7200    5.3990 hc        1 MOL      0.107978
     99 H44         2.7830    3.5560    2.5540 hc        1 MOL      0.066287
    100 H45         1.2790    4.2560    1.8350 hc        1 MOL      0.066287
    101 H46         1.8710    4.7070    3.4720 hc        1 MOL      0.066287
    102 N10        -1.9930    1.3290    1.3500 n         1 MOL     -0.561736
    103 C32        -2.0000    0.2230    0.3380 c3        1 MOL      0.316553
    104 C33        -3.4040   -0.4150    0.1270 c         1 MOL      0.404540
    105 O16        -3.6150   -1.5620   -0.3570 o         1 MOL     -0.469079
    106 C34        -1.0620   -0.8910    0.8270 c3        1 MOL     -0.448028
    107 C35        -0.6170   -1.8820   -0.2450 c         1 MOL      0.743266
    108 O17        -0.6950   -1.6960   -1.5130 o         1 MOL     -0.734142
    109 O18        -0.0160   -2.9630    0.1590 o         1 MOL     -0.734142
    110 H47        -2.5140    1.1240    2.1890 hn        1 MOL      0.312902
    111 H48        -1.7040    0.5930   -0.6400 h1        1 MOL      0.023077
    112 H49        -1.4770   -1.3340    1.7370 hc        1 MOL      0.153639
    113 H50        -0.0700   -0.4590    0.9550 hc        1 MOL      0.153639
    114 N11        -4.4890    0.3310    0.3890 n         1 MOL     -0.539125
    115 C36        -5.8200   -0.1010   -0.0820 c3        1 MOL      0.445121
    116 C37        -6.3520   -1.3480    0.7520 c         1 MOL      0.009324
    117 O19        -6.2860   -1.2710    1.9810 o         1 MOL     -0.411480
    118 C38        -6.7490    1.1030    0.0310 c3        1 MOL     -0.421847
    119 C39        -8.0940    0.9440   -0.6260 ca        1 MOL      0.197492
    120 C40        -8.3110    1.1280   -1.9640 ca        1 MOL     -0.181147
    121 C41        -9.2030    0.5140    0.1610 ca        1 MOL     -0.181147
    122 C42        -9.5830    0.9140   -2.5730 ca        1 MOL     -0.121086
    123 C43       -10.4190    0.1060   -0.4080 ca        1 MOL     -0.121086
    124 C44       -10.6370    0.3320   -1.7850 ca        1 MOL     -0.120649
    125 H51        -4.3750    1.3170    0.6050 hn        1 MOL      0.285189
    126 H52        -5.7020   -0.3030   -1.1530 h1        1 MOL      0.025472
    127 H53        -6.1960    1.9240   -0.4280 hc        1 MOL      0.134674
    128 H54        -6.9400    1.2170    1.1010 hc        1 MOL      0.134674
    129 H55        -7.4000    1.2870   -2.5380 ha        1 MOL      0.126499
    130 H56        -9.0870    0.3510    1.2220 ha        1 MOL      0.126499
    131 H57        -9.8860    1.1670   -3.5820 ha        1 MOL      0.119392
    132 H58       -11.2210   -0.3170    0.1710 ha        1 MOL      0.119392
    133 H59       -11.5760    0.0720   -2.2600 ha        1 MOL      0.108631
    134 N12        -6.9300   -2.3160    0.1090 n         1 MOL      0.114205
    135 C45        -7.3580   -3.5650    0.7800 c3        1 MOL      0.022799
    136 C46        -6.2890   -4.3120    1.5910 c         1 MOL      0.285084
    137 O20        -6.6210   -5.1430    2.4350 o         1 MOL     -0.517754
    138 C47        -7.9220   -4.4690   -0.3700 c3        1 MOL     -0.120928
    139 C48        -8.3100   -3.3300   -1.4000 c3        1 MOL     -0.050750
    140 C49        -7.1320   -2.3400   -1.2800 c3        1 MOL      0.030348
    141 H60        -8.1850   -3.3730    1.4730 h1        1 MOL      0.077898
    142 H61        -7.1180   -5.1030   -0.7430 hc        1 MOL      0.067010
    143 H62        -8.8790   -4.9160   -0.1320 hc        1 MOL      0.067010
    144 H63        -8.3470   -3.8060   -2.3810 hc        1 MOL      0.023435
    145 H64        -9.2160   -2.7650   -1.1750 hc        1 MOL      0.023435
    146 H65        -6.2360   -2.8020   -1.6960 h1        1 MOL      0.004232
    147 H66        -7.2700   -1.3640   -1.7450 h1        1 MOL      0.004232
    148 N13        -5.0110   -3.9860    1.4190 n         1 MOL     -0.005198
    149 C50        -4.0270   -4.5460    2.2980 c3        1 MOL     -0.307052
    150 C51        -3.7630   -3.6500    3.5140 c         1 MOL      0.470646
    151 O21        -2.9140   -4.0230    4.3350 o         1 MOL     -0.538299
    152 C52        -2.7230   -4.7210    1.5080 c3        1 MOL      0.148004
    153 C53        -2.8350   -5.6050    0.2130 c3        1 MOL     -0.208987
    154 C54        -1.5400   -5.7450   -0.5030 c         1 MOL      0.736119
    155 O22        -0.7340   -6.6030   -0.0530 o         1 MOL     -0.724383
    156 O23        -1.3720   -5.0850   -1.5820 o         1 MOL     -0.724383
    157 H67        -4.6760   -3.5270    0.5860 hn        1 MOL      0.229499
    158 H68        -4.3520   -5.5510    2.5890 h1        1 MOL      0.159390
    159 H69        -2.0270   -5.1150    2.2440 hc        1 MOL      0.029282
    160 H70        -2.2430   -3.7990    1.2020 hc        1 MOL      0.029282
    161 H71        -3.5940   -5.1560   -0.4300 hc        1 MOL      0.014575
    162 H72        -3.2180   -6.5870    0.4810 hc        1 MOL      0.014575
    163 N14        -4.3450   -2.4230    3.6310 n         1 MOL     -0.078117
    164 C55        -4.1620   -1.6050    4.8400 c3        1 MOL     -0.302909
    165 H73        -4.5290   -2.1520    5.7070 h1        1 MOL      0.106127
    166 H74        -3.1030   -1.3840    4.9720 h1        1 MOL      0.106127
    167 H75        -4.7180   -0.6730    4.7360 h1        1 MOL      0.106127
    168 H76        -5.0260   -2.1720    2.9410 hn        1 MOL      0.104028
    169 Ca1         0.8050   -3.8530   -2.2490 Ca        1 MOL      1.658300
    170 O24         1.7740   -2.7290   -4.5350 oh        1 MOL     -0.776992
    171 H77         1.8240   -3.4290   -5.1820 ho        1 MOL      0.381954
    172 H78         2.3320   -2.0350   -4.8900 ho        1 MOL      0.381954
    173 O25        -1.0460   -3.5250   -4.1930 oh        1 MOL     -0.776992
    174 H79        -1.8040   -3.0620   -3.8420 ho        1 MOL      0.381954
    175 H80        -1.2290   -3.6100   -5.1250 ho        1 MOL      0.381954
    176 O26         1.1350   -5.9870   -3.8810 oh        1 MOL     -0.776992
    177 H81         0.5180   -6.7110   -3.8090 ho        1 MOL      0.381954
    178 H82         0.8490   -5.5080   -4.6630 ho        1 MOL      0.381954
    179 O27         1.7310   -5.8910   -0.9840 oh        1 MOL     -0.776992
    180 H83         0.9630   -6.2740   -0.5610 ho        1 MOL      0.381954
    181 H84         2.4620   -6.4270   -0.6790 ho        1 MOL      0.381954
@<TRIPOS>BOND
     1    1    2 1   
     2    1    4 1   
     3    1    5 1   
     4    1    6 1   
     5    2    3 2   
     6    2    7 1   
     7    7    8 1   
     8    7   15 1   
     9    8    9 1   
    10    8   11 1   
    11    8   16 1   
    12    9   10 2   
    13    9   19 1   
    14   11   12 1   
    15   11   17 1   
    16   11   18 1   
    17   12   13 1   
    18   12   14 1   
    19   19   20 1   
    20   19   24 1   
    21   20   21 1   
    22   20   23 1   
    23   20   25 1   
    24   21   22 2   
    25   21   29 1   
    26   23   26 1   
    27   23   27 1   
    28   23   28 1   
    29   29   30 1   
    30   29   37 1   
    31   30   31 1   
    32   30   33 1   
    33   30   38 1   
    34   31   32 2   
    35   31   41 1   
    36   33   34 1   
    37   33   39 1   
    38   33   40 1   
    39   34   35 1   
    40   34   36 1   
    41   41   42 1   
    42   41   45 1   
    43   42   43 1   
    44   42   46 1   
    45   42   47 1   
    46   43   44 2   
    47   43   48 1   
    48   48   49 1   
    49   48   56 1   
    50   49   50 1   
    51   49   52 1   
    52   49   57 1   
    53   50   51 2   
    54   50   62 1   
    55   52   53 1   
    56   52   58 1   
    57   52   59 1   
    58   53   54 1   
    59   53   55 2   
    60   54   60 1   
    61   54   61 1   
    62   62   63 1   
    63   62   66 1   
    64   63   64 1   
    65   63   67 1   
    66   63   68 1   
    67   64   65 2   
    68   64   69 1   
    69   69   70 1   
    70   69   76 1   
    71   70   71 1   
    72   70   73 1   
    73   70   77 1   
    74   71   72 2   
    75   71   83 1   
    76   73   74 1   
    77   73   75 1   
    78   73   78 1   
    79   74   80 1   
    80   74   81 1   
    81   74   82 1   
    82   75   79 1   
    83   83   84 1   
    84   83   91 1   
    85   84   85 1   
    86   84   87 1   
    87   84   92 1   
    88   85   86 2   
    89   85  102 1   
    90   87   88 1   
    91   87   89 1   
    92   87   93 1   
    93   88   90 1   
    94   88   94 1   
    95   88   95 1   
    96   89   96 1   
    97   89   97 1   
    98   89   98 1   
    99   90   99 1   
   100   90  100 1   
   101   90  101 1   
   102  102  103 1   
   103  102  110 1   
   104  103  104 1   
   105  103  106 1   
   106  103  111 1   
   107  104  105 2   
   108  104  114 1   
   109  106  107 1   
   110  106  112 1   
   111  106  113 1   
   112  107  108 1   
   113  107  109 1   
   114  114  115 1   
   115  114  125 1   
   116  115  116 1   
   117  115  118 1   
   118  115  126 1   
   119  116  117 2   
   120  116  134 1   
   121  118  119 1   
   122  118  127 1   
   123  118  128 1   
   124  119  120 ar  
   125  119  121 ar  
   126  120  122 ar  
   127  120  129 1   
   128  121  123 ar  
   129  121  130 1   
   130  122  124 ar  
   131  122  131 1   
   132  123  124 ar  
   133  123  132 1   
   134  124  133 1   
   135  134  135 1   
   136  134  140 1   
   137  135  136 1   
   138  135  138 1   
   139  135  141 1   
   140  136  137 2   
   141  136  148 1   
   142  138  139 1   
   143  138  142 1   
   144  138  143 1   
   145  139  140 1   
   146  139  144 1   
   147  139  145 1   
   148  140  146 1   
   149  140  147 1   
   150  148  149 1   
   151  148  157 1   
   152  149  150 1   
   153  149  152 1   
   154  149  158 1   
   155  150  151 2   
   156  150  163 1   
   157  152  153 1   
   158  152  159 1   
   159  152  160 1   
   160  153  154 1   
   161  153  161 1   
   162  153  162 1   
   163  154  155 1   
   164  154  156 1   
   165  163  164 1   
   166  163  168 1   
   167  164  165 1   
   168  164  166 1   
   169  164  167 1   
   170  170  171 1   
   171  170  172 1   
   172  173  174 1   
   173  173  175 1   
   174  176  177 1   
   175  176  178 1   
   176  179  180 1   
   177  179  181 1   
@<TRIPOS>SUBSTRUCTURE
     1 MOL         1 TEMP              0 ****  ****    0 ROOT
