@<TRIPOS>MOLECULE
MOL
  181   177     1     0     0
SMALL
resp


@<TRIPOS>ATOM
      1 C1          0.6910    7.1190   -2.3120 c3        1 MOL     -0.437978
      2 C2          2.0210    7.0580   -1.5500 c         1 MOL      0.736170
      3 O1          2.1640    7.4490   -0.4000 o         1 MOL     -0.606665
      4 H1          0.2230    6.1350   -2.3050 hc        1 MOL      0.108765
      5 H2          0.0290    7.8380   -1.8310 hc        1 MOL      0.108765
      6 H3          0.8750    7.4270   -3.3410 hc        1 MOL      0.108765
      7 N1          3.1040    6.6020   -2.0910 n         1 MOL     -0.619312
      8 C3          4.4250    6.4700   -1.3750 c3        1 MOL      0.302384
      9 C4          4.4550    5.1920   -0.4250 c         1 MOL      0.592127
     10 O2          3.8610    4.1510   -0.6410 o         1 MOL     -0.599982
     11 C5          5.5840    6.5970   -2.3620 c3        1 MOL     -0.257755
     12 C6          6.8860    6.9050   -1.5950 c         1 MOL      0.647126
     13 O3          7.7590    5.9880   -1.5500 o         1 MOL     -0.709926
     14 O4          6.9780    7.8860   -0.8250 o         1 MOL     -0.709926
     15 H4          3.1030    6.1550   -3.0060 hn        1 MOL      0.280527
     16 H5          4.3680    7.3060   -0.6790 h1        1 MOL      0.018641
     17 H6          5.3950    7.4230   -3.0400 hc        1 MOL      0.035750
     18 H7          5.7050    5.7040   -2.9850 hc        1 MOL      0.035750
     19 N2          5.3220    5.1930    0.6580 n         1 MOL     -0.560779
     20 C7          5.5540    4.0380    1.5770 c3        1 MOL      0.364756
     21 C8          4.2860    3.6660    2.4250 c         1 MOL      0.488485
     22 O5          3.5870    4.5670    2.8440 o         1 MOL     -0.549606
     23 C9          6.7950    4.3190    2.4100 c3        1 MOL     -0.371050
     24 H8          5.8200    6.0560    0.8380 hn        1 MOL      0.311047
     25 H9          5.7830    3.2200    0.8880 h1        1 MOL      0.032317
     26 H10         6.7580    5.3330    2.8090 hc        1 MOL      0.094906
     27 H11         6.8130    3.6300    3.2600 hc        1 MOL      0.094906
     28 H12         7.6580    4.2290    1.7600 hc        1 MOL      0.094906
     29 N3          4.0460    2.3680    2.6950 n         1 MOL     -0.348163
     30 C10         5.0710    1.3020    2.8530 c3        1 MOL      0.058761
     31 C11         5.4260    0.5230    1.5740 c         1 MOL      0.506750
     32 O6          4.5900    0.5630    0.6430 o         1 MOL     -0.514905
     33 C12         4.6340    0.2970    3.9840 c3        1 MOL     -0.172543
     34 C13         3.1860   -0.2130    3.8790 c         1 MOL      0.809282
     35 O7          2.3960    0.2330    3.0770 o         1 MOL     -0.757854
     36 O8          2.7840   -1.1740    4.5720 o         1 MOL     -0.757854
     37 H13         3.2150    2.1410    3.2310 hn        1 MOL      0.250559
     38 H14         5.9620    1.8270    3.1980 h1        1 MOL      0.001058
     39 H15         4.7450    0.7360    4.9720 hc        1 MOL      0.038506
     40 H16         5.3570   -0.5120    3.9420 hc        1 MOL      0.038506
     41 N4          6.5430   -0.1750    1.4980 n         1 MOL     -0.527000
     42 C14         6.8200   -1.0130    0.2690 c3        1 MOL      0.237113
     43 C15         8.2800   -1.4380    0.1090 c         1 MOL      0.517450
     44 O9          9.1000   -0.7150    0.5980 o         1 MOL     -0.532259
     45 H17         7.3030   -0.1890    2.1610 hn        1 MOL      0.319857
     46 H18         6.5870   -0.5430   -0.6840 h1        1 MOL      0.002773
     47 H19         6.2020   -1.9120    0.3300 h1        1 MOL      0.002773
     48 N5          8.6370   -2.6400   -0.4160 n         1 MOL     -0.540869
     49 C16         7.8300   -3.6860   -1.1330 c3        1 MOL      0.131224
     50 C17         6.5060   -3.2050   -1.8040 c         1 MOL      0.555606
     51 O10         6.3810   -2.1280   -2.3850 o         1 MOL     -0.498234
     52 C18         8.7710   -4.2520   -2.2360 c3        1 MOL     -0.208064
     53 C19         8.2090   -5.3380   -3.0750 c         1 MOL      0.726895
     54 N6          8.8360   -5.6040   -4.1570 n         1 MOL     -0.824538
     55 O11         7.1750   -5.8960   -2.8480 o         1 MOL     -0.547945
     56 H20         9.6050   -2.8960   -0.2870 hn        1 MOL      0.324359
     57 H21         7.6100   -4.5170   -0.4670 h1        1 MOL      0.022382
     58 H22         9.6820   -4.6000   -1.7490 hc        1 MOL      0.064153
     59 H23         8.9990   -3.3870   -2.8550 hc        1 MOL      0.064153
     60 H24         9.5850   -4.9740   -4.4310 hn        1 MOL      0.374341
     61 H25         8.2690   -6.1040   -4.8320 hn        1 MOL      0.374341
     62 N7          5.4360   -4.0460   -1.7600 n         1 MOL     -0.438599
     63 C20         4.0870   -3.7780   -2.3280 c3        1 MOL     -0.170171
     64 C21         3.0420   -4.6350   -1.6960 c         1 MOL      0.491987
     65 O12         3.0710   -5.8320   -1.8970 o         1 MOL     -0.528992
     66 H26         5.6580   -5.0250   -1.6640 hn        1 MOL      0.266332
     67 H27         4.0610   -4.0500   -3.3910 h1        1 MOL      0.129882
     68 H28         3.8400   -2.7400   -2.1250 h1        1 MOL      0.129882
     69 N8          1.9930   -4.1030   -1.0960 n         1 MOL     -0.364783
     70 C22         0.8040   -4.8620   -0.6320 c3        1 MOL     -0.010010
     71 C23        -0.2470   -3.8300   -0.5270 c         1 MOL      0.460185
     72 O13        -0.0200   -2.6630   -0.2120 o         1 MOL     -0.549995
     73 C24         1.0690   -5.5270    0.6940 c3        1 MOL      0.421229
     74 C25        -0.1280   -5.7930    1.5810 c3        1 MOL     -0.274976
     75 O14         1.9230   -6.6880    0.4610 oh        1 MOL     -0.697837
     76 H29         2.0640   -3.1090   -0.9360 hn        1 MOL      0.273381
     77 H30         0.5720   -5.6700   -1.3320 h1        1 MOL      0.057626
     78 H31         1.7540   -4.8420    1.1770 h1        1 MOL     -0.014286
     79 H32         2.4280   -6.5510   -0.3440 ho        1 MOL      0.394469
     80 H33        -0.4860   -4.7930    1.8240 hc        1 MOL      0.088418
     81 H34        -0.8750   -6.3100    0.9760 hc        1 MOL      0.088418
     82 H35         0.1750   -6.2620    2.5100 hc        1 MOL      0.088418
     83 N9         -1.4840   -4.2230   -0.8300 n         1 MOL     -0.399851
     84 C26        -2.7150   -3.4410   -0.6830 c3        1 MOL     -0.036624
     85 C27        -3.1230   -3.3980    0.7850 c         1 MOL      0.406120
     86 O15        -3.2060   -4.4470    1.3780 o         1 MOL     -0.554267
     87 C28        -3.8150   -3.9240   -1.6510 c3        1 MOL      0.067785
     88 C29        -5.1630   -3.0760   -1.5870 c3        1 MOL      0.148357
     89 C30        -3.2440   -3.9270   -3.1220 c3        1 MOL     -0.293756
     90 C31        -6.4000   -3.6880   -2.3810 c3        1 MOL     -0.212999
     91 H36        -1.6450   -5.2150   -0.9760 hn        1 MOL      0.295841
     92 H37        -2.5600   -2.4170   -1.0320 h1        1 MOL      0.251743
     93 H38        -4.0880   -4.9590   -1.4290 hc        1 MOL      0.002875
     94 H39        -4.8490   -2.1580   -2.0830 hc        1 MOL     -0.027438
     95 H40        -5.4440   -2.8890   -0.5550 hc        1 MOL     -0.027438
     96 H41        -2.5330   -3.1080   -3.2170 hc        1 MOL      0.065695
     97 H42        -2.5560   -4.7480   -3.3210 hc        1 MOL      0.065695
     98 H43        -4.0120   -3.9970   -3.9030 hc        1 MOL      0.065695
     99 H44        -7.3110   -3.2550   -1.9700 hc        1 MOL      0.045951
    100 H45        -6.3170   -3.3750   -3.4190 hc        1 MOL      0.045951
    101 H46        -6.4160   -4.7780   -2.3590 hc        1 MOL      0.045951
    102 N10        -3.4320   -2.2480    1.4100 n         1 MOL      0.123749
    103 C32        -4.2180   -2.1880    2.6460 c3        1 MOL     -0.074222
    104 C33        -5.5800   -1.6050    2.3720 c         1 MOL      0.434256
    105 O16        -6.5500   -1.7420    3.1620 o         1 MOL     -0.565338
    106 C34        -3.4640   -1.3190    3.6440 c3        1 MOL     -0.022189
    107 C35        -2.0390   -1.8030    3.8040 c         1 MOL      0.717565
    108 O17        -1.8450   -2.8190    4.5370 o         1 MOL     -0.712870
    109 O18        -1.0750   -1.1200    3.4290 o         1 MOL     -0.712870
    110 H47        -3.1640   -1.3610    0.9980 hn        1 MOL     -0.349671
    111 H48        -4.5040   -3.1370    3.1020 h1        1 MOL      0.105405
    112 H49        -3.9890   -1.3850    4.5950 hc        1 MOL      0.012209
    113 H50        -3.4270   -0.2660    3.3830 hc        1 MOL      0.012209
    114 N11        -5.7350   -0.8470    1.2590 n         1 MOL     -0.218856
    115 C36        -6.8840    0.0510    0.9750 c3        1 MOL      0.173573
    116 C37        -6.4930    1.4160    0.3500 c         1 MOL      0.337236
    117 O19        -7.0580    1.7670   -0.7120 o         1 MOL     -0.451321
    118 C38        -7.8820   -0.7310    0.0790 c3        1 MOL     -0.108994
    119 C39        -9.2690   -0.1690   -0.2020 ca        1 MOL      0.057899
    120 C40       -10.0080   -0.8110   -1.2000 ca        1 MOL     -0.095222
    121 C41        -9.9130    0.7430    0.5990 ca        1 MOL     -0.095222
    122 C42       -11.3500   -0.5240   -1.3740 ca        1 MOL     -0.152758
    123 C43       -11.2570    1.0000    0.4860 ca        1 MOL     -0.152758
    124 C44       -12.0230    0.3880   -0.5180 ca        1 MOL     -0.113288
    125 H51        -4.9900   -0.7220    0.5750 hn        1 MOL      0.194032
    126 H52        -7.3720    0.2470    1.9340 h1        1 MOL      0.021354
    127 H53        -8.0780   -1.7090    0.5000 hc        1 MOL      0.059950
    128 H54        -7.3860   -0.9480   -0.8700 hc        1 MOL      0.059950
    129 H55        -9.5570   -1.5390   -1.8510 ha        1 MOL      0.091069
    130 H56        -9.2900    1.2130    1.3490 ha        1 MOL      0.091069
    131 H57       -11.8670   -1.0240   -2.1720 ha        1 MOL      0.104521
    132 H58       -11.7220    1.6060    1.2450 ha        1 MOL      0.104521
    133 H59       -13.0910    0.4970   -0.5970 ha        1 MOL      0.096235
    134 N12        -5.6800    2.2780    1.0090 n         1 MOL     -0.139930
    135 C45        -5.3310    3.6270    0.5310 c3        1 MOL     -0.073741
    136 C46        -5.0130    3.6280   -0.9570 c         1 MOL      0.320767
    137 O20        -5.4540    4.5040   -1.6730 o         1 MOL     -0.473495
    138 C47        -4.1700    4.0550    1.3760 c3        1 MOL      0.208109
    139 C48        -4.4090    3.3200    2.6960 c3        1 MOL     -0.211779
    140 C49        -4.9070    1.9630    2.2030 c3        1 MOL      0.028119
    141 H60        -6.1900    4.2360    0.7860 h1        1 MOL      0.095859
    142 H61        -3.2270    3.6650    0.9920 hc        1 MOL     -0.021286
    143 H62        -4.0500    5.1330    1.5150 hc        1 MOL     -0.021286
    144 H63        -3.5240    3.2050    3.3350 hc        1 MOL      0.055177
    145 H64        -5.2400    3.8940    3.1140 hc        1 MOL      0.055177
    146 H65        -4.0280    1.3780    1.9290 h1        1 MOL      0.064363
    147 H66        -5.4290    1.4710    3.0190 h1        1 MOL      0.064363
    148 N13        -4.1220    2.6510   -1.3960 n         1 MOL     -0.109527
    149 C50        -3.6560    2.4720   -2.8270 c3        1 MOL     -0.378459
    150 C51        -4.8680    2.3660   -3.8630 c         1 MOL      0.537378
    151 O21        -4.6840    2.7850   -5.0410 o         1 MOL     -0.588478
    152 C52        -2.7500    1.2250   -2.9680 c3        1 MOL      0.164001
    153 C53        -1.8510    0.8670   -1.7940 c3        1 MOL     -0.153909
    154 C54        -2.5210    0.2110   -0.5560 c         1 MOL      0.563055
    155 O22        -1.8130   -0.2180    0.3940 o         1 MOL     -0.619197
    156 O23        -3.7780   -0.0470   -0.5710 o         1 MOL     -0.619197
    157 H67        -3.8380    1.9380   -0.7450 hn        1 MOL      0.195319
    158 H68        -3.0420    3.3240   -3.1070 h1        1 MOL      0.161512
    159 H69        -2.0080    1.3920   -3.7550 hc        1 MOL      0.000337
    160 H70        -3.3360    0.3840   -3.3430 hc        1 MOL      0.000337
    161 H71        -1.3540    1.7730   -1.4330 hc        1 MOL      0.043852
    162 H72        -1.0920    0.1500   -2.1250 hc        1 MOL      0.043852
    163 N14        -5.9250    1.7070   -3.5360 n         1 MOL     -0.040024
    164 C55        -6.9960    1.5410   -4.4290 c3        1 MOL     -0.221194
    165 H73        -7.4160    0.5430   -4.3110 h1        1 MOL      0.079663
    166 H74        -7.7640    2.2860   -4.2180 h1        1 MOL      0.079663
    167 H75        -6.6400    1.6660   -5.4520 h1        1 MOL      0.079663
    168 H76        -6.0620    1.3410   -2.6060 hn        1 MOL      0.150797
    169 Ca1         0.5600   -0.6110    1.5510 Ca        1 MOL      1.778017
    170 O24        -0.6720    1.7430    2.2740 oh        1 MOL     -0.890490
    171 H77        -0.8250    2.6310    1.9470 ho        1 MOL      0.434158
    172 H78        -1.3800    1.5920    2.9000 ho        1 MOL      0.434158
    173 O25         1.6950    1.4600    0.2140 oh        1 MOL     -0.890490
    174 H79         2.5540    1.8560    0.3390 ho        1 MOL      0.434158
    175 H80         1.1320    2.1900   -0.0420 ho        1 MOL      0.434158
    176 O26         1.5290   -2.9050    2.7680 oh        1 MOL     -0.890490
    177 H81         2.0340   -2.4440    3.4360 ho        1 MOL      0.434158
    178 H82         1.0190   -3.5500    3.2420 ho        1 MOL      0.434158
    179 O27         2.8710   -1.5800    0.4320 oh        1 MOL     -0.890490
    180 H83         3.3580   -0.7810    0.2150 ho        1 MOL      0.434158
    181 H84         3.5430   -2.2710    0.4540 ho        1 MOL      0.434158
@<TRIPOS>BOND
     1    1    2 1   
     2    1    4 1   
     3    1    5 1   
     4    1    6 1   
     5    2    3 2   
     6    2    7 1   
     7    7    8 1   
     8    7   15 1   
     9    8    9 1   
    10    8   11 1   
    11    8   16 1   
    12    9   10 2   
    13    9   19 1   
    14   11   12 1   
    15   11   17 1   
    16   11   18 1   
    17   12   13 1   
    18   12   14 1   
    19   19   20 1   
    20   19   24 1   
    21   20   21 1   
    22   20   23 1   
    23   20   25 1   
    24   21   22 2   
    25   21   29 1   
    26   23   26 1   
    27   23   27 1   
    28   23   28 1   
    29   29   30 1   
    30   29   37 1   
    31   30   31 1   
    32   30   33 1   
    33   30   38 1   
    34   31   32 2   
    35   31   41 1   
    36   33   34 1   
    37   33   39 1   
    38   33   40 1   
    39   34   35 1   
    40   34   36 1   
    41   41   42 1   
    42   41   45 1   
    43   42   43 1   
    44   42   46 1   
    45   42   47 1   
    46   43   44 2   
    47   43   48 1   
    48   48   49 1   
    49   48   56 1   
    50   49   50 1   
    51   49   52 1   
    52   49   57 1   
    53   50   51 2   
    54   50   62 1   
    55   52   53 1   
    56   52   58 1   
    57   52   59 1   
    58   53   54 1   
    59   53   55 2   
    60   54   60 1   
    61   54   61 1   
    62   62   63 1   
    63   62   66 1   
    64   63   64 1   
    65   63   67 1   
    66   63   68 1   
    67   64   65 2   
    68   64   69 1   
    69   69   70 1   
    70   69   76 1   
    71   70   71 1   
    72   70   73 1   
    73   70   77 1   
    74   71   72 2   
    75   71   83 1   
    76   73   74 1   
    77   73   75 1   
    78   73   78 1   
    79   74   80 1   
    80   74   81 1   
    81   74   82 1   
    82   75   79 1   
    83   83   84 1   
    84   83   91 1   
    85   84   85 1   
    86   84   87 1   
    87   84   92 1   
    88   85   86 2   
    89   85  102 1   
    90   87   88 1   
    91   87   89 1   
    92   87   93 1   
    93   88   90 1   
    94   88   94 1   
    95   88   95 1   
    96   89   96 1   
    97   89   97 1   
    98   89   98 1   
    99   90   99 1   
   100   90  100 1   
   101   90  101 1   
   102  102  103 1   
   103  102  110 1   
   104  103  104 1   
   105  103  106 1   
   106  103  111 1   
   107  104  105 2   
   108  104  114 1   
   109  106  107 1   
   110  106  112 1   
   111  106  113 1   
   112  107  108 1   
   113  107  109 1   
   114  114  115 1   
   115  114  125 1   
   116  115  116 1   
   117  115  118 1   
   118  115  126 1   
   119  116  117 2   
   120  116  134 1   
   121  118  119 1   
   122  118  127 1   
   123  118  128 1   
   124  119  120 ar  
   125  119  121 ar  
   126  120  122 ar  
   127  120  129 1   
   128  121  123 ar  
   129  121  130 1   
   130  122  124 ar  
   131  122  131 1   
   132  123  124 ar  
   133  123  132 1   
   134  124  133 1   
   135  134  135 1   
   136  134  140 1   
   137  135  136 1   
   138  135  138 1   
   139  135  141 1   
   140  136  137 2   
   141  136  148 1   
   142  138  139 1   
   143  138  142 1   
   144  138  143 1   
   145  139  140 1   
   146  139  144 1   
   147  139  145 1   
   148  140  146 1   
   149  140  147 1   
   150  148  149 1   
   151  148  157 1   
   152  149  150 1   
   153  149  152 1   
   154  149  158 1   
   155  150  151 2   
   156  150  163 1   
   157  152  153 1   
   158  152  159 1   
   159  152  160 1   
   160  153  154 1   
   161  153  161 1   
   162  153  162 1   
   163  154  155 1   
   164  154  156 1   
   165  163  164 1   
   166  163  168 1   
   167  164  165 1   
   168  164  166 1   
   169  164  167 1   
   170  170  171 1   
   171  170  172 1   
   172  173  174 1   
   173  173  175 1   
   174  176  177 1   
   175  176  178 1   
   176  179  180 1   
   177  179  181 1   
@<TRIPOS>SUBSTRUCTURE
     1 MOL         1 TEMP              0 ****  ****    0 ROOT
