@<TRIPOS>MOLECULE
MOL
  192   187     1     0     0
SMALL
resp


@<TRIPOS>ATOM
      1 C1         11.5680    5.9730   -2.0260 c3        1 MOL     -0.332320
      2 C2         11.4530    4.6340   -1.3570 c         1 MOL      0.611107
      3 O1         12.3990    3.8320   -1.4680 o         1 MOL     -0.604489
      4 H1         12.5750    6.3650   -1.8820 hc        1 MOL      0.091598
      5 H2         11.3700    5.8650   -3.0930 hc        1 MOL      0.091598
      6 H3         10.8450    6.6610   -1.5890 hc        1 MOL      0.091598
      7 N1         10.3710    4.3540   -0.6550 n         1 MOL     -0.207737
      8 C3         10.1990    3.2040    0.2510 c3        1 MOL     -0.208832
      9 C4          8.9820    2.3710   -0.1430 c         1 MOL      0.625762
     10 O2          7.9310    2.9190   -0.4710 o         1 MOL     -0.679285
     11 C5          9.9990    3.8200    1.6310 c3        1 MOL      0.051465
     12 C6          9.0920    5.0410    1.7650 c         1 MOL      0.654560
     13 O3          9.2000    5.7410    2.8140 o         1 MOL     -0.686720
     14 O4          8.2640    5.3810    0.8870 o         1 MOL     -0.686720
     15 H4          9.5660    4.9560   -0.6310 hn        1 MOL      0.068640
     16 H5         11.0000    2.4790    0.3180 h1        1 MOL      0.101833
     17 H6         11.0000    4.1380    1.9100 hc        1 MOL      0.040201
     18 H7          9.8220    3.0750    2.3940 hc        1 MOL      0.040201
     19 N2          9.1570    1.0300   -0.1440 n         1 MOL     -0.547557
     20 C7          8.1410    0.0020   -0.5390 c3        1 MOL      0.175144
     21 C8          7.2130   -0.1830    0.6300 c         1 MOL      0.601643
     22 O5          7.5570   -0.5770    1.7730 o         1 MOL     -0.526797
     23 C9          8.7770   -1.3340   -0.9220 c3        1 MOL     -0.219458
     24 C10         7.7400   -2.4640   -1.4070 c3        1 MOL      0.004936
     25 C11         8.5980   -3.6850   -1.8400 c3        1 MOL     -0.001237
     26 C12         7.7080   -4.8500   -2.2680 c3        1 MOL      0.058045
     27 N3          8.4350   -6.0440   -2.9010 n4        1 MOL     -0.402429
     28 H8          9.9870    0.6480    0.2750 hn        1 MOL      0.327561
     29 H9          7.5820    0.2880   -1.4300 h1        1 MOL      0.065213
     30 H10         9.3740   -1.6730   -0.0750 hc        1 MOL      0.073404
     31 H11         9.4260   -1.0810   -1.7630 hc        1 MOL      0.073404
     32 H12         7.0910   -2.1340   -2.2150 hc        1 MOL      0.011585
     33 H13         7.0690   -2.7230   -0.5850 hc        1 MOL      0.011585
     34 H14         9.2160   -4.0330   -1.0210 hc        1 MOL      0.034145
     35 H15         9.1990   -3.4310   -2.7140 hc        1 MOL      0.034145
     36 H16         6.9150   -4.4870   -2.9220 hx        1 MOL      0.089382
     37 H17         7.2430   -5.2930   -1.3800 hx        1 MOL      0.089382
     38 H18         8.8550   -5.7700   -3.7670 hn        1 MOL      0.305137
     39 H19         9.1730   -6.2730   -2.2490 hn        1 MOL      0.305137
     40 H20         7.7320   -6.7500   -3.0670 hn        1 MOL      0.305137
     41 N4          5.9440    0.0530    0.2810 n         1 MOL     -0.401442
     42 C13         4.7750   -0.2380    1.1650 c3        1 MOL     -0.049946
     43 C14         3.4500   -0.2770    0.3830 c         1 MOL      0.440929
     44 O6          3.3600    0.1990   -0.8040 o         1 MOL     -0.520871
     45 C15         4.7210    0.9100    2.2100 c3        1 MOL      0.003048
     46 C16         5.1250    2.3100    1.6970 c         1 MOL      0.654636
     47 O7          6.1970    2.7710    2.1330 o         1 MOL     -0.699024
     48 O8          4.3540    3.0080    1.0540 o         1 MOL     -0.699024
     49 H21         5.7110    0.5170   -0.5760 hn        1 MOL      0.170782
     50 H22         4.9960   -1.2200    1.5710 h1        1 MOL      0.133162
     51 H23         5.4060    0.5980    2.9860 hc        1 MOL      0.035420
     52 H24         3.7350    0.9970    2.6760 hc        1 MOL      0.035420
     53 N5          2.3400   -0.7790    0.9390 n         1 MOL     -0.377366
     54 C17         2.2610   -1.5880    2.1740 c3        1 MOL      0.007658
     55 C18         2.8210   -3.0540    2.1270 c         1 MOL      0.404653
     56 O9          3.2980   -3.4700    1.0420 o         1 MOL     -0.491836
     57 H25         1.4880   -0.6900    0.4040 hn        1 MOL      0.310802
     58 H26         1.2010   -1.6750    2.3890 h1        1 MOL      0.050179
     59 H27         2.6780   -1.0170    3.0110 h1        1 MOL      0.050179
     60 N6          2.6450   -3.8600    3.1590 n         1 MOL     -0.264222
     61 C19         3.1500   -5.2520    3.1760 c3        1 MOL     -0.050461
     62 C20         2.5190   -6.1510    2.1220 c         1 MOL      0.492248
     63 O10         3.1150   -7.0700    1.6490 o         1 MOL     -0.527793
     64 C21         2.8990   -5.6980    4.6480 c3        1 MOL     -0.140781
     65 C22         3.3650   -4.7840    5.7590 c         1 MOL      0.704744
     66 O11         2.5010   -4.1830    6.4200 o         1 MOL     -0.659245
     67 O12         4.5870   -4.6160    5.9200 o         1 MOL     -0.659245
     68 H28         2.1210   -3.4380    3.9040 hn        1 MOL      0.237285
     69 H29         4.2100   -5.1910    2.9000 h1        1 MOL      0.103524
     70 H30         3.4170   -6.6530    4.7520 hc        1 MOL      0.013711
     71 H31         1.8100   -5.7640    4.7160 hc        1 MOL      0.013711
     72 N7          1.2990   -5.7900    1.7690 n         1 MOL     -0.280802
     73 C23         0.5450   -6.3410    0.7160 c3        1 MOL      0.021450
     74 C24         0.4890   -5.5250   -0.5350 c         1 MOL      0.586644
     75 O13        -0.0390   -6.1450   -1.4290 o         1 MOL     -0.578886
     76 H32         0.8710   -5.0110    2.2640 hn        1 MOL      0.241173
     77 H33        -0.4620   -6.4110    1.1160 h1        1 MOL      0.049541
     78 H34         0.8700   -7.3440    0.4380 h1        1 MOL      0.049541
     79 N8          0.9010   -4.2380   -0.5750 n         1 MOL     -0.298758
     80 C25         0.7930   -3.3200   -1.7320 c3        1 MOL     -0.037891
     81 C26         0.1430   -1.9960   -1.4350 c         1 MOL      0.372938
     82 O14        -0.2000   -1.7140   -0.2990 o         1 MOL     -0.418086
     83 C27         2.2920   -3.0450   -2.3230 c3        1 MOL      0.328625
     84 C28         3.1180   -4.3110   -2.3700 c3        1 MOL     -0.231108
     85 O15         2.2910   -2.4770   -3.6160 oh        1 MOL     -0.673611
     86 H35         1.1350   -3.8490    0.3260 hn        1 MOL      0.140197
     87 H36         0.1840   -3.6670   -2.5610 h1        1 MOL      0.119016
     88 H37         2.9140   -2.3760   -1.7180 h1        1 MOL      0.013573
     89 H38         3.1610   -2.6460   -3.9990 ho        1 MOL      0.427868
     90 H39         4.0270   -4.2380   -2.9750 hc        1 MOL      0.046189
     91 H40         3.4270   -4.5990   -1.3580 hc        1 MOL      0.046189
     92 H41         2.5520   -5.0990   -2.8620 hc        1 MOL      0.046189
     93 N9         -0.1230   -1.1690   -2.5050 n         1 MOL     -0.327512
     94 C29        -0.7960    0.1120   -2.5660 c3        1 MOL     -0.265973
     95 C30        -2.1330    0.1240   -1.8030 c         1 MOL      0.623596
     96 O16        -2.5110    1.0630   -1.0990 o         1 MOL     -0.502227
     97 C31        -0.9050    0.3920   -4.0850 c3        1 MOL      0.095512
     98 C32         0.3690    0.2940   -4.9470 c3        1 MOL      0.138301
     99 C33        -1.5590    1.7270   -4.3140 c3        1 MOL     -0.240287
    100 C34         1.4080    1.3610   -4.5870 c3        1 MOL     -0.190043
    101 H42         0.2060   -1.6140   -3.3480 hn        1 MOL      0.258234
    102 H43        -0.0750    0.7900   -2.1050 h1        1 MOL      0.175918
    103 H44        -1.6290   -0.3060   -4.4880 hc        1 MOL      0.031693
    104 H45         0.1250    0.3770   -6.0120 hc        1 MOL     -0.021698
    105 H46         0.7750   -0.7110   -4.9650 hc        1 MOL     -0.021698
    106 H47        -0.9800    2.4240   -3.7030 hc        1 MOL      0.070078
    107 H48        -1.6190    1.9550   -5.3800 hc        1 MOL      0.070078
    108 H49        -2.6000    1.6950   -4.0010 hc        1 MOL      0.070078
    109 H50         1.6250    1.5020   -3.5250 hc        1 MOL      0.048247
    110 H51         2.3600    1.0470   -5.0090 hc        1 MOL      0.048247
    111 H52         1.0950    2.3210   -5.0040 hc        1 MOL      0.048247
    112 N10        -2.8320   -1.0940   -1.6880 n         1 MOL     -0.452974
    113 C35        -3.9610   -1.3830   -0.8320 c3        1 MOL     -0.021541
    114 C36        -5.1560   -1.9800   -1.5510 c         1 MOL      0.580841
    115 O17        -5.0920   -2.7570   -2.5400 o         1 MOL     -0.554613
    116 C37        -3.6200   -2.3050    0.3650 c3        1 MOL      0.417959
    117 C38        -3.2480   -3.7410   -0.0410 c3        1 MOL     -0.599103
    118 O18        -2.6090   -1.6980    1.1650 oh        1 MOL     -0.603313
    119 H53        -2.4520   -1.8710   -2.2160 hn        1 MOL      0.252390
    120 H54        -4.3220   -0.4820   -0.3230 h1        1 MOL      0.081672
    121 H55        -4.5180   -2.2690    0.9900 h1        1 MOL      0.024347
    122 H56        -1.8670   -1.5730    0.5540 ho        1 MOL      0.369726
    123 H57        -2.2840   -3.8170   -0.5520 hc        1 MOL      0.149607
    124 H58        -3.0980   -4.3170    0.8720 hc        1 MOL      0.149607
    125 H59        -3.9640   -4.2730   -0.6610 hc        1 MOL      0.149607
    126 N11        -6.3740   -1.6920   -1.0780 n         1 MOL     -0.574652
    127 C39        -7.6340   -2.3180   -1.5280 c3        1 MOL      0.160162
    128 C40        -8.6370   -1.1830   -1.7840 c         1 MOL      0.539483
    129 O19        -8.9660   -0.9950   -2.9180 o         1 MOL     -0.547572
    130 C41        -8.1130   -3.3560   -0.5100 c3        1 MOL      0.359717
    131 C42        -9.3660   -4.1050   -0.8400 c3        1 MOL     -0.396511
    132 O20        -8.0730   -2.7910    0.8090 oh        1 MOL     -0.653823
    133 H60        -6.3540   -1.0120   -0.3350 hn        1 MOL      0.273786
    134 H61        -7.5290   -2.8780   -2.4590 h1        1 MOL      0.074492
    135 H62        -7.2670   -4.0440   -0.5460 h1        1 MOL     -0.006545
    136 H63        -7.8610   -3.4800    1.4430 ho        1 MOL      0.420127
    137 H64       -10.2280   -3.4670   -0.6670 hc        1 MOL      0.102314
    138 H65        -9.3520   -4.3770   -1.8900 hc        1 MOL      0.102314
    139 H66        -9.4370   -4.9130   -0.1150 hc        1 MOL      0.102314
    140 N12        -9.2250   -0.6630   -0.6690 n         1 MOL     -0.317237
    141 C43       -10.1230    0.4810   -0.6870 c3        1 MOL      0.011683
    142 C44        -9.7030    1.4010    0.4240 c         1 MOL      0.423937
    143 O21        -9.2270    0.9180    1.4410 o         1 MOL     -0.499068
    144 C45       -11.5710   -0.0200   -0.5870 c3        1 MOL     -0.502359
    145 C46       -11.9630   -0.6990    0.7460 c3        1 MOL     -0.020844
    146 C47       -13.4020   -1.1800    0.8390 c3        1 MOL      0.030163
    147 C48       -14.4520   -0.0350    0.8390 c3        1 MOL      0.047084
    148 N13       -15.8010   -0.6160    0.6730 n4        1 MOL     -0.273250
    149 H67        -8.8280   -0.9830    0.2000 hn        1 MOL      0.237620
    150 H68        -9.9470    1.0370   -1.6130 h1        1 MOL      0.101018
    151 H69       -11.6150   -0.7720   -1.3790 hc        1 MOL      0.165938
    152 H70       -12.2730    0.8000   -0.7400 hc        1 MOL      0.165938
    153 H71       -11.8200   -0.0910    1.6440 hc        1 MOL      0.079396
    154 H72       -11.3530   -1.5750    0.9410 hc        1 MOL      0.079396
    155 H73       -13.5010   -1.8910    1.6620 hc        1 MOL      0.010861
    156 H74       -13.5830   -1.8030   -0.0360 hc        1 MOL      0.010861
    157 H75       -14.2640    0.6220   -0.0170 hx        1 MOL      0.073973
    158 H76       -14.3400    0.5540    1.7480 hx        1 MOL      0.073973
    159 H77       -16.1780   -0.9100    1.5570 hn        1 MOL      0.250411
    160 H78       -16.3940    0.1000    0.2880 hn        1 MOL      0.250411
    161 H79       -15.8120   -1.4050    0.0340 hn        1 MOL      0.250411
    162 N14        -9.8380    2.7180    0.2720 n         1 MOL     -0.263316
    163 C49        -9.3610    3.7070    1.1910 c3        1 MOL      0.079602
    164 C50        -7.8340    3.7880    1.5240 c         1 MOL      0.463405
    165 O22        -7.4370    4.0220    2.6230 o         1 MOL     -0.517299
    166 C51       -10.0270    5.0770    0.8060 c3        1 MOL      0.086403
    167 C52       -10.1890    6.1040    1.9190 c3        1 MOL     -0.051210
    168 C53       -10.6780    7.4390    1.3410 c         1 MOL      0.701712
    169 O23       -11.7300    7.5570    0.7780 o         1 MOL     -0.659687
    170 O24        -9.8610    8.4140    1.5450 o         1 MOL     -0.659687
    171 H80       -10.3300    3.0660   -0.5380 hn        1 MOL      0.219409
    172 H81        -9.7360    3.4180    2.1720 h1        1 MOL      0.030808
    173 H82       -11.0370    4.8590    0.4730 hc        1 MOL     -0.040463
    174 H83        -9.4410    5.5450    0.0090 hc        1 MOL     -0.040463
    175 H84        -9.3000    6.2550    2.5300 hc        1 MOL     -0.009368
    176 H85       -10.9680    5.7720    2.6020 hc        1 MOL     -0.009368
    177 N15        -6.8590    3.7080    0.5850 n         1 MOL     -0.375854
    178 C54        -7.0720    3.9190   -0.8390 c3        1 MOL     -0.001034
    179 H86        -8.0060    3.4420   -1.1410 h1        1 MOL      0.038101
    180 H87        -7.1280    4.9870   -1.0440 h1        1 MOL      0.038101
    181 H88        -6.2450    3.4840   -1.4000 h1        1 MOL      0.038101
    182 H89        -5.9240    3.7390    0.9500 hn        1 MOL      0.298238
    183 Ca1         5.9610    4.7810   -0.0510 Ca        1 MOL      1.773738
    184 O25         5.5930    6.0260    2.1750 oh        1 MOL     -0.885112
    185 H90         5.7040    5.4870    2.9580 ho        1 MOL      0.439292
    186 H91         5.3070    6.8710    2.5150 ho        1 MOL      0.439292
    187 O26         3.4360    5.7990   -0.7990 oh        1 MOL     -0.885112
    188 H92         2.7870    5.5440   -1.4540 ho        1 MOL      0.439292
    189 H93         3.1770    6.6760   -0.5400 ho        1 MOL      0.439292
    190 O27         5.1920    3.2210   -2.2010 oh        1 MOL     -0.885112
    191 H94         5.0560    2.2820   -2.1390 ho        1 MOL      0.439292
    192 H95         5.7820    3.3370   -2.9450 ho        1 MOL      0.439292
@<TRIPOS>BOND
     1    1    2 1   
     2    1    4 1   
     3    1    5 1   
     4    1    6 1   
     5    2    3 2   
     6    2    7 1   
     7    7    8 1   
     8    7   15 1   
     9    8    9 1   
    10    8   11 1   
    11    8   16 1   
    12    9   10 2   
    13    9   19 1   
    14   11   12 1   
    15   11   17 1   
    16   11   18 1   
    17   12   13 1   
    18   12   14 1   
    19   19   20 1   
    20   19   28 1   
    21   20   21 1   
    22   20   23 1   
    23   20   29 1   
    24   21   22 2   
    25   21   41 1   
    26   23   24 1   
    27   23   30 1   
    28   23   31 1   
    29   24   25 1   
    30   24   32 1   
    31   24   33 1   
    32   25   26 1   
    33   25   34 1   
    34   25   35 1   
    35   26   27 1   
    36   26   36 1   
    37   26   37 1   
    38   27   38 1   
    39   27   39 1   
    40   27   40 1   
    41   41   42 1   
    42   41   49 1   
    43   42   43 1   
    44   42   45 1   
    45   42   50 1   
    46   43   44 2   
    47   43   53 1   
    48   45   46 1   
    49   45   51 1   
    50   45   52 1   
    51   46   47 1   
    52   46   48 1   
    53   53   54 1   
    54   53   57 1   
    55   54   55 1   
    56   54   58 1   
    57   54   59 1   
    58   55   56 2   
    59   55   60 1   
    60   60   61 1   
    61   60   68 1   
    62   61   62 1   
    63   61   64 1   
    64   61   69 1   
    65   62   63 2   
    66   62   72 1   
    67   64   65 1   
    68   64   70 1   
    69   64   71 1   
    70   65   66 1   
    71   65   67 1   
    72   72   73 1   
    73   72   76 1   
    74   73   74 1   
    75   73   77 1   
    76   73   78 1   
    77   74   75 2   
    78   74   79 1   
    79   79   80 1   
    80   79   86 1   
    81   80   81 1   
    82   80   83 1   
    83   80   87 1   
    84   81   82 2   
    85   81   93 1   
    86   83   84 1   
    87   83   85 1   
    88   83   88 1   
    89   84   90 1   
    90   84   91 1   
    91   84   92 1   
    92   85   89 1   
    93   93   94 1   
    94   93  101 1   
    95   94   95 1   
    96   94   97 1   
    97   94  102 1   
    98   95   96 2   
    99   95  112 1   
   100   97   98 1   
   101   97   99 1   
   102   97  103 1   
   103   98  100 1   
   104   98  104 1   
   105   98  105 1   
   106   99  106 1   
   107   99  107 1   
   108   99  108 1   
   109  100  109 1   
   110  100  110 1   
   111  100  111 1   
   112  112  113 1   
   113  112  119 1   
   114  113  114 1   
   115  113  116 1   
   116  113  120 1   
   117  114  115 2   
   118  114  126 1   
   119  116  117 1   
   120  116  118 1   
   121  116  121 1   
   122  117  123 1   
   123  117  124 1   
   124  117  125 1   
   125  118  122 1   
   126  126  127 1   
   127  126  133 1   
   128  127  128 1   
   129  127  130 1   
   130  127  134 1   
   131  128  129 2   
   132  128  140 1   
   133  130  131 1   
   134  130  132 1   
   135  130  135 1   
   136  131  137 1   
   137  131  138 1   
   138  131  139 1   
   139  132  136 1   
   140  140  141 1   
   141  140  149 1   
   142  141  142 1   
   143  141  144 1   
   144  141  150 1   
   145  142  143 2   
   146  142  162 1   
   147  144  145 1   
   148  144  151 1   
   149  144  152 1   
   150  145  146 1   
   151  145  153 1   
   152  145  154 1   
   153  146  147 1   
   154  146  155 1   
   155  146  156 1   
   156  147  148 1   
   157  147  157 1   
   158  147  158 1   
   159  148  159 1   
   160  148  160 1   
   161  148  161 1   
   162  162  163 1   
   163  162  171 1   
   164  163  164 1   
   165  163  166 1   
   166  163  172 1   
   167  164  165 2   
   168  164  177 1   
   169  166  167 1   
   170  166  173 1   
   171  166  174 1   
   172  167  168 1   
   173  167  175 1   
   174  167  176 1   
   175  168  169 1   
   176  168  170 1   
   177  177  178 1   
   178  177  182 1   
   179  178  179 1   
   180  178  180 1   
   181  178  181 1   
   182  184  185 1   
   183  184  186 1   
   184  187  188 1   
   185  187  189 1   
   186  190  191 1   
   187  190  192 1   
@<TRIPOS>SUBSTRUCTURE
     1 MOL         1 TEMP              0 ****  ****    0 ROOT
