@<TRIPOS>MOLECULE
MOL
  192   187     1     0     0
SMALL
resp


@<TRIPOS>ATOM
      1 C1         -6.9770   -3.4840    4.0390 c3        1 MOL     -0.207428
      2 C2         -6.2850   -2.6090    2.8960 c         1 MOL      0.689377
      3 O1         -5.7300   -3.1290    1.9210 o         1 MOL     -0.597199
      4 H1         -7.1380   -4.4980    3.6730 hc        1 MOL      0.058157
      5 H2         -6.3310   -3.5130    4.9170 hc        1 MOL      0.058157
      6 H3         -7.9360   -3.0390    4.3070 hc        1 MOL      0.058157
      7 N1         -6.2430   -1.2770    2.9750 n         1 MOL     -0.564584
      8 C3         -5.4760   -0.4480    2.0720 c3        1 MOL      0.268311
      9 C4         -3.9340   -0.5330    2.0710 c         1 MOL      0.126803
     10 O2         -3.2030    0.2250    1.4050 o         1 MOL     -0.237551
     11 C5         -5.7970    1.0400    2.3980 c3        1 MOL     -0.314957
     12 C6         -6.0520    1.2960    3.9200 c         1 MOL      0.719035
     13 O3         -5.1660    1.9040    4.6000 o         1 MOL     -0.689025
     14 O4         -7.1020    0.9430    4.5020 o         1 MOL     -0.689025
     15 H4         -6.6200   -0.8690    3.8130 hn        1 MOL      0.296883
     16 H5         -5.6930   -0.6790    1.0260 h1        1 MOL      0.081347
     17 H6         -6.6860    1.3510    1.8430 hc        1 MOL      0.078321
     18 H7         -5.0790    1.7140    1.9490 hc        1 MOL      0.078321
     19 N2         -3.3990   -1.5660    2.7070 n         1 MOL     -0.025819
     20 C7         -1.8600   -1.7720    2.7180 c3        1 MOL     -0.136829
     21 C8         -1.3580   -2.8560    1.7300 c         1 MOL      0.392455
     22 O5         -1.6790   -4.0720    1.9540 o         1 MOL     -0.519923
     23 C9         -1.4190   -2.0940    4.1610 c3        1 MOL     -0.030226
     24 C10        -1.9580   -1.2230    5.2900 c3        1 MOL     -0.190765
     25 C11        -1.7000    0.2640    5.0310 c3        1 MOL      0.017158
     26 C12        -0.2530    0.6380    5.1230 c3        1 MOL      0.142644
     27 N3          0.0230    2.0580    5.3430 n4        1 MOL     -0.415358
     28 H8         -4.0110   -2.2710    3.1080 hn        1 MOL      0.211139
     29 H9         -1.3420   -0.8750    2.4130 h1        1 MOL     -0.049731
     30 H10        -0.3510   -2.2380    4.2730 hc        1 MOL      0.067486
     31 H11        -1.7250   -3.1170    4.4050 hc        1 MOL      0.067486
     32 H12        -1.4700   -1.4510    6.2440 hc        1 MOL      0.068887
     33 H13        -3.0430   -1.2400    5.2370 hc        1 MOL      0.068887
     34 H14        -2.3750    0.8640    5.6360 hc        1 MOL      0.025140
     35 H15        -2.0590    0.4500    4.0120 hc        1 MOL      0.025140
     36 H16         0.2820    0.2560    4.2520 hx        1 MOL      0.034316
     37 H17         0.1740    0.1100    5.9710 hx        1 MOL      0.034316
     38 H18         1.0130    2.2490    5.2330 hn        1 MOL      0.323033
     39 H19        -0.4400    2.6120    4.6380 hn        1 MOL      0.323033
     40 H20        -0.2490    2.4510    6.2280 hn        1 MOL      0.323033
     41 N4         -0.4930   -2.5960    0.7650 n         1 MOL      0.009705
     42 C13         0.3670   -1.4160    0.5290 c3        1 MOL     -0.170599
     43 C14         0.9920   -0.7870    1.7880 c         1 MOL      0.714664
     44 O6          0.7390    0.3810    2.0780 o         1 MOL     -0.577185
     45 C15        -0.3120   -0.3410   -0.3850 c3        1 MOL     -0.527892
     46 C16        -0.5390   -0.8610   -1.8470 c         1 MOL      0.838806
     47 O7         -0.0470   -1.9870   -2.1370 o         1 MOL     -0.751095
     48 O8         -1.1330   -0.2190   -2.7280 o         1 MOL     -0.751095
     49 H21        -0.2860   -3.4140    0.1850 hn        1 MOL      0.022717
     50 H22         1.2450   -1.7180   -0.0290 h1        1 MOL      0.048457
     51 H23         0.2490    0.5900   -0.4740 hc        1 MOL      0.177032
     52 H24        -1.2550   -0.0570    0.0730 hc        1 MOL      0.177032
     53 N5          1.8330   -1.5060    2.5100 n         1 MOL     -0.420700
     54 C17         2.5450   -2.7150    2.2030 c3        1 MOL      0.022531
     55 C18         3.6700   -3.0760    3.1920 c         1 MOL      0.537744
     56 O9          3.7040   -2.5200    4.3170 o         1 MOL     -0.527537
     57 H25         2.2430   -1.0280    3.2950 hn        1 MOL      0.255540
     58 H26         3.0550   -2.6360    1.2400 h1        1 MOL      0.065113
     59 H27         1.8320   -3.5390    2.1780 h1        1 MOL      0.065113
     60 N6          4.5680   -4.0050    2.7930 n         1 MOL     -0.594151
     61 C19         4.6890   -4.5870    1.4580 c3        1 MOL      0.332412
     62 C20         5.4710   -3.6180    0.4980 c         1 MOL      0.486235
     63 O10         6.1910   -2.6850    0.9450 o         1 MOL     -0.432724
     64 C21         5.3100   -6.0550    1.4400 c3        1 MOL     -0.277298
     65 C22         6.7120   -5.9890    1.9650 c         1 MOL      0.769387
     66 O11         7.7300   -6.1600    1.2620 o         1 MOL     -0.639095
     67 O12         6.9350   -5.7100    3.1210 o         1 MOL     -0.639095
     68 H28         5.1950   -4.3130    3.5280 hn        1 MOL      0.353360
     69 H29         3.7270   -4.7820    0.9890 h1        1 MOL     -0.059602
     70 H30         5.3450   -6.5100    0.4500 hc        1 MOL      0.046673
     71 H31         4.8130   -6.7090    2.1500 hc        1 MOL      0.046673
     72 N7          5.3070   -3.8420   -0.7870 n         1 MOL     -0.400165
     73 C23         6.1790   -3.2930   -1.8490 c3        1 MOL     -0.151941
     74 C24         6.2690   -1.7740   -2.0080 c         1 MOL      0.432824
     75 O13         7.2970   -1.2300   -2.4390 o         1 MOL     -0.535970
     76 H32         4.6960   -4.6090   -1.0260 hn        1 MOL      0.166067
     77 H33         5.8870   -3.6550   -2.8260 h1        1 MOL      0.128538
     78 H34         7.2040   -3.5950   -1.6490 h1        1 MOL      0.128538
     79 N8          5.1740   -1.0590   -1.7280 n         1 MOL     -0.168820
     80 C25         5.0550    0.3800   -1.9770 c3        1 MOL      0.083094
     81 C26         5.3900    1.0690   -0.6530 c         1 MOL      0.398274
     82 O14         5.2640    0.5680    0.4700 o         1 MOL     -0.517188
     83 C27         3.7580    0.8260   -2.6280 c3        1 MOL      0.188101
     84 C28         3.3420   -0.0630   -3.9090 c3        1 MOL      0.035068
     85 O15         3.7670    2.1770   -2.9400 oh        1 MOL     -0.624546
     86 H35         4.4170   -1.5700   -1.2930 hn        1 MOL      0.153655
     87 H36         5.9040    0.6080   -2.6240 h1        1 MOL      0.066310
     88 H37         2.8730    0.6700   -1.9970 h1        1 MOL      0.056008
     89 H38         2.8940    2.4950   -3.1920 ho        1 MOL      0.437718
     90 H39         2.3650    0.2330   -4.2980 hc        1 MOL     -0.031521
     91 H40         4.0580    0.2590   -4.6640 hc        1 MOL     -0.031521
     92 H41         3.3860   -1.1260   -3.6780 hc        1 MOL     -0.031521
     93 N9          5.8890    2.2660   -0.7070 n         1 MOL     -0.154857
     94 C29         6.1760    3.1690    0.4370 c3        1 MOL     -0.348675
     95 C30         4.8400    3.8310    1.0200 c         1 MOL      0.515231
     96 O16         4.9340    4.3790    2.1330 o         1 MOL     -0.520979
     97 C31         7.3130    4.1840    0.0270 c3        1 MOL      0.250646
     98 C32         6.8000    5.3060   -0.8750 c3        1 MOL      0.129322
     99 C33         8.5410    3.4120   -0.4660 c3        1 MOL     -0.120922
    100 C34         7.8610    6.2810   -1.4070 c3        1 MOL     -0.529172
    101 H42         6.0660    2.5740   -1.6510 hn        1 MOL      0.191806
    102 H43         6.5370    2.4660    1.1880 h1        1 MOL      0.192669
    103 H44         7.5720    4.6580    0.9730 hc        1 MOL     -0.007199
    104 H45         6.1810    5.9280   -0.2330 hc        1 MOL      0.026342
    105 H46         6.1810    5.0270   -1.7280 hc        1 MOL      0.026342
    106 H47         8.7790    2.6430    0.2730 hc        1 MOL      0.027918
    107 H48         8.4040    2.9440   -1.4360 hc        1 MOL      0.027918
    108 H49         9.3620    4.1350   -0.5210 hc        1 MOL      0.027918
    109 H50         8.7020    6.3100   -0.7020 hc        1 MOL      0.122765
    110 H51         8.2490    5.9010   -2.3490 hc        1 MOL      0.122765
    111 H52         7.5710    7.3310   -1.2910 hc        1 MOL      0.122765
    112 N10         3.7370    3.8410    0.2290 n         1 MOL     -0.269616
    113 C35         2.5200    4.5660    0.5720 c3        1 MOL      0.043774
    114 C36         1.2850    3.7400    0.2080 c         1 MOL      0.461738
    115 O17         1.2690    2.9230   -0.6640 o         1 MOL     -0.449760
    116 C37         2.4240    5.9200   -0.1700 c3        1 MOL      0.343996
    117 C38         2.3790    5.9050   -1.6710 c3        1 MOL     -0.459729
    118 O18         3.5480    6.6340    0.2540 oh        1 MOL     -0.642997
    119 H53         3.7180    3.3290   -0.6390 hn        1 MOL      0.131525
    120 H54         2.4690    4.7140    1.6500 h1        1 MOL      0.071869
    121 H55         1.5060    6.4250    0.1200 h1        1 MOL      0.004637
    122 H56         3.8210    7.3050   -0.3800 ho        1 MOL      0.399637
    123 H57         3.3510    5.7320   -2.1280 hc        1 MOL      0.119666
    124 H58         1.6100    5.2470   -2.0700 hc        1 MOL      0.119666
    125 H59         1.9770    6.9060   -1.8330 hc        1 MOL      0.119666
    126 N11         0.1840    4.0490    0.9000 n         1 MOL     -0.525948
    127 C39        -1.0350    3.2680    1.0140 c3        1 MOL      0.063990
    128 C40        -1.8770    3.4350   -0.3070 c         1 MOL      0.349723
    129 O19        -1.5960    4.3100   -1.1620 o         1 MOL     -0.521094
    130 C41        -1.9670    3.6820    2.1840 c3        1 MOL      0.294194
    131 C42        -2.0400    5.2280    2.4330 c3        1 MOL     -0.447298
    132 O20        -1.5410    3.1060    3.3260 oh        1 MOL     -0.610004
    133 H60         0.2800    4.7740    1.5960 hn        1 MOL      0.292729
    134 H61        -0.7550    2.2290    1.1760 h1        1 MOL      0.252975
    135 H62        -2.9760    3.2730    2.1080 h1        1 MOL      0.050494
    136 H63        -2.2900    3.1980    3.9330 ho        1 MOL      0.359724
    137 H64        -2.8300    5.3320    3.1810 hc        1 MOL      0.120614
    138 H65        -1.0390    5.5360    2.7340 hc        1 MOL      0.120614
    139 H66        -2.3320    5.8640    1.6040 hc        1 MOL      0.120614
    140 N12        -2.8080    2.5290   -0.4440 n         1 MOL     -0.003469
    141 C43        -3.6960    2.5090   -1.6350 c3        1 MOL     -0.267315
    142 C44        -4.0840    1.1470   -2.1470 c         1 MOL      0.869224
    143 O21        -4.4000    1.0920   -3.3200 o         1 MOL     -0.658034
    144 C45        -4.8830    3.3090   -1.1080 c3        1 MOL     -0.269442
    145 C46        -6.0320    3.5080   -2.1150 c3        1 MOL     -0.007845
    146 C47        -5.6520    4.4420   -3.3390 c3        1 MOL     -0.126736
    147 C48        -4.9570    5.7720   -3.0030 c3        1 MOL      0.406170
    148 N13        -4.8160    6.5840   -4.2310 n4        1 MOL     -0.619540
    149 H67        -3.0720    1.9780    0.3620 hn        1 MOL     -0.058457
    150 H68        -3.2190    3.0310   -2.4590 h1        1 MOL      0.145981
    151 H69        -4.4390    4.2760   -0.8840 hc        1 MOL      0.098805
    152 H70        -5.2010    2.8080   -0.1930 hc        1 MOL      0.098805
    153 H71        -6.9870    3.8650   -1.7180 hc        1 MOL      0.056388
    154 H72        -6.2400    2.5040   -2.4990 hc        1 MOL      0.056388
    155 H73        -6.5720    4.7640   -3.8140 hc        1 MOL      0.031999
    156 H74        -5.0370    3.9680   -4.1110 hc        1 MOL      0.031999
    157 H75        -3.9840    5.6360   -2.5270 hx        1 MOL     -0.011790
    158 H76        -5.5280    6.3190   -2.2530 hx        1 MOL     -0.011790
    159 H77        -3.9770    7.1470   -4.2510 hn        1 MOL      0.379093
    160 H78        -4.6130    5.9940   -5.0190 hn        1 MOL      0.379093
    161 H79        -5.6290    7.1680   -4.3470 hn        1 MOL      0.379093
    162 N14        -4.1470    0.1120   -1.3850 n         1 MOL     -0.007617
    163 C49        -4.5800   -1.2320   -1.9270 c3        1 MOL     -0.436149
    164 C50        -6.1600   -1.2750   -1.9890 c         1 MOL      0.420066
    165 O22        -6.8870   -0.7740   -1.0910 o         1 MOL     -0.488585
    166 C51        -3.9750   -2.3630   -1.0910 c3        1 MOL      1.110172
    167 C52        -4.3620   -3.7880   -1.5380 c3        1 MOL     -0.910788
    168 C53        -4.0310   -4.1170   -3.0220 c         1 MOL      1.025196
    169 O23        -4.8610   -3.9400   -3.9190 o         1 MOL     -0.819372
    170 O24        -2.9110   -4.5670   -3.2810 o         1 MOL     -0.819372
    171 H80        -3.9420    0.1780   -0.4010 hn        1 MOL     -0.075852
    172 H81        -4.2340   -1.3870   -2.9480 h1        1 MOL      0.117114
    173 H82        -4.2630   -2.2280   -0.0540 hc        1 MOL     -0.245629
    174 H83        -2.8950   -2.3000   -1.1700 hc        1 MOL     -0.245629
    175 H84        -5.4190   -3.9430   -1.3440 hc        1 MOL      0.187619
    176 H85        -3.8210   -4.5050   -0.9340 hc        1 MOL      0.187619
    177 N15        -6.6260   -1.9490   -3.1220 n         1 MOL     -0.385606
    178 C54        -8.0520   -2.0250   -3.4900 c3        1 MOL     -0.046093
    179 H86        -8.2790   -3.0260   -3.8570 h1        1 MOL      0.055633
    180 H87        -8.6660   -1.8110   -2.6140 h1        1 MOL      0.055633
    181 H88        -8.2660   -1.2950   -4.2710 h1        1 MOL      0.055633
    182 H89        -5.9470   -2.4010   -3.7260 hn        1 MOL      0.424496
    183 Ca1        -0.3220   -4.3960   -3.4410 Ca        1 MOL      1.589460
    184 O25         2.2010   -4.5980   -4.6410 oh        1 MOL     -0.865978
    185 H90         2.8130   -4.0810   -5.1710 ho        1 MOL      0.430439
    186 H91         2.7680   -5.1300   -4.0740 ho        1 MOL      0.430439
    187 O26        -1.0040   -2.0960   -4.5540 oh        1 MOL     -0.865978
    188 H92        -0.5670   -1.6650   -5.2940 ho        1 MOL      0.430439
    189 H93        -0.8270   -1.5370   -3.8040 ho        1 MOL      0.430439
    190 O27        -0.5400   -4.7110   -6.1040 oh        1 MOL     -0.865978
    191 H94        -0.8950   -5.5800   -6.2690 ho        1 MOL      0.430439
    192 H95        -0.5340   -4.2850   -6.9600 ho        1 MOL      0.430439
@<TRIPOS>BOND
     1    1    2 1   
     2    1    4 1   
     3    1    5 1   
     4    1    6 1   
     5    2    3 2   
     6    2    7 1   
     7    7    8 1   
     8    7   15 1   
     9    8    9 1   
    10    8   11 1   
    11    8   16 1   
    12    9   10 2   
    13    9   19 1   
    14   11   12 1   
    15   11   17 1   
    16   11   18 1   
    17   12   13 1   
    18   12   14 1   
    19   19   20 1   
    20   19   28 1   
    21   20   21 1   
    22   20   23 1   
    23   20   29 1   
    24   21   22 2   
    25   21   41 1   
    26   23   24 1   
    27   23   30 1   
    28   23   31 1   
    29   24   25 1   
    30   24   32 1   
    31   24   33 1   
    32   25   26 1   
    33   25   34 1   
    34   25   35 1   
    35   26   27 1   
    36   26   36 1   
    37   26   37 1   
    38   27   38 1   
    39   27   39 1   
    40   27   40 1   
    41   41   42 1   
    42   41   49 1   
    43   42   43 1   
    44   42   45 1   
    45   42   50 1   
    46   43   44 2   
    47   43   53 1   
    48   45   46 1   
    49   45   51 1   
    50   45   52 1   
    51   46   47 1   
    52   46   48 1   
    53   53   54 1   
    54   53   57 1   
    55   54   55 1   
    56   54   58 1   
    57   54   59 1   
    58   55   56 2   
    59   55   60 1   
    60   60   61 1   
    61   60   68 1   
    62   61   62 1   
    63   61   64 1   
    64   61   69 1   
    65   62   63 2   
    66   62   72 1   
    67   64   65 1   
    68   64   70 1   
    69   64   71 1   
    70   65   66 1   
    71   65   67 1   
    72   72   73 1   
    73   72   76 1   
    74   73   74 1   
    75   73   77 1   
    76   73   78 1   
    77   74   75 2   
    78   74   79 1   
    79   79   80 1   
    80   79   86 1   
    81   80   81 1   
    82   80   83 1   
    83   80   87 1   
    84   81   82 2   
    85   81   93 1   
    86   83   84 1   
    87   83   85 1   
    88   83   88 1   
    89   84   90 1   
    90   84   91 1   
    91   84   92 1   
    92   85   89 1   
    93   93   94 1   
    94   93  101 1   
    95   94   95 1   
    96   94   97 1   
    97   94  102 1   
    98   95   96 2   
    99   95  112 1   
   100   97   98 1   
   101   97   99 1   
   102   97  103 1   
   103   98  100 1   
   104   98  104 1   
   105   98  105 1   
   106   99  106 1   
   107   99  107 1   
   108   99  108 1   
   109  100  109 1   
   110  100  110 1   
   111  100  111 1   
   112  112  113 1   
   113  112  119 1   
   114  113  114 1   
   115  113  116 1   
   116  113  120 1   
   117  114  115 2   
   118  114  126 1   
   119  116  117 1   
   120  116  118 1   
   121  116  121 1   
   122  117  123 1   
   123  117  124 1   
   124  117  125 1   
   125  118  122 1   
   126  126  127 1   
   127  126  133 1   
   128  127  128 1   
   129  127  130 1   
   130  127  134 1   
   131  128  129 2   
   132  128  140 1   
   133  130  131 1   
   134  130  132 1   
   135  130  135 1   
   136  131  137 1   
   137  131  138 1   
   138  131  139 1   
   139  132  136 1   
   140  140  141 1   
   141  140  149 1   
   142  141  142 1   
   143  141  144 1   
   144  141  150 1   
   145  142  143 2   
   146  142  162 1   
   147  144  145 1   
   148  144  151 1   
   149  144  152 1   
   150  145  146 1   
   151  145  153 1   
   152  145  154 1   
   153  146  147 1   
   154  146  155 1   
   155  146  156 1   
   156  147  148 1   
   157  147  157 1   
   158  147  158 1   
   159  148  159 1   
   160  148  160 1   
   161  148  161 1   
   162  162  163 1   
   163  162  171 1   
   164  163  164 1   
   165  163  166 1   
   166  163  172 1   
   167  164  165 2   
   168  164  177 1   
   169  166  167 1   
   170  166  173 1   
   171  166  174 1   
   172  167  168 1   
   173  167  175 1   
   174  167  176 1   
   175  168  169 1   
   176  168  170 1   
   177  177  178 1   
   178  177  182 1   
   179  178  179 1   
   180  178  180 1   
   181  178  181 1   
   182  184  185 1   
   183  184  186 1   
   184  187  188 1   
   185  187  189 1   
   186  190  191 1   
   187  190  192 1   
@<TRIPOS>SUBSTRUCTURE
     1 MOL         1 TEMP              0 ****  ****    0 ROOT
