@<TRIPOS>MOLECULE
MOL
  195   189     1     0     0
SMALL
resp


@<TRIPOS>ATOM
      1 C1          0.6120    3.4740    3.4140 c3        1 MOL     -0.096498
      2 C2          0.0150    3.5840    1.9960 c         1 MOL      0.727425
      3 O1         -0.2860    2.5250    1.4060 o         1 MOL     -0.493017
      4 H1         -0.0390    3.9860    4.1240 hc        1 MOL     -0.009078
      5 H2          0.6970    2.4240    3.6930 hc        1 MOL     -0.009078
      6 H3          1.5990    3.9360    3.4300 hc        1 MOL     -0.009078
      7 N1         -0.0460    4.7460    1.4150 n         1 MOL     -0.629339
      8 C3         -0.6970    4.9940    0.1010 c3        1 MOL     -0.267048
      9 C4         -2.2530    4.4680    0.1870 c         1 MOL      0.727864
     10 O2         -2.6360    3.5260   -0.5140 o         1 MOL     -0.569893
     11 C5          0.2090    4.5230   -1.0460 c3        1 MOL      0.017928
     12 C6          1.6540    4.9950   -0.9600 c         1 MOL      0.711984
     13 O3          1.9450    6.1670   -1.2040 o         1 MOL     -0.761756
     14 O4          2.4940    4.1550   -0.6340 o         1 MOL     -0.761756
     15 H4          0.1280    5.6100    1.9130 hn        1 MOL      0.325213
     16 H5         -0.6760    6.0610   -0.1170 h1        1 MOL      0.110738
     17 H6         -0.1140    4.7750   -2.0520 hc        1 MOL      0.050250
     18 H7          0.2080    3.4290   -1.1290 hc        1 MOL      0.050250
     19 N2         -3.0010    4.9700    1.1440 n         1 MOL     -0.406947
     20 C7         -4.4680    4.8520    1.1750 c3        1 MOL     -0.514180
     21 C8         -5.1450    5.8350    0.1820 c         1 MOL      0.646202
     22 O5         -4.5840    6.9200   -0.0060 o         1 MOL     -0.613034
     23 C9         -5.0140    4.9420    2.6220 c3        1 MOL      0.225336
     24 C10        -4.9380    6.3440    3.0990 c3        1 MOL      0.134973
     25 C11        -4.4110    3.8900    3.6070 c3        1 MOL     -0.368927
     26 C12        -5.4400    6.6050    4.5240 c3        1 MOL     -0.187053
     27 H8         -2.5780    5.6910    1.7090 hn        1 MOL      0.298578
     28 H9         -4.5770    3.8400    0.7860 h1        1 MOL      0.275165
     29 H10        -6.0850    4.7300    2.5570 hc        1 MOL      0.060564
     30 H11        -5.6170    6.8990    2.4590 hc        1 MOL     -0.014612
     31 H12        -3.8930    6.6390    3.0170 hc        1 MOL     -0.014612
     32 H13        -3.4360    4.2820    3.8960 hc        1 MOL      0.088544
     33 H14        -5.0590    3.8690    4.4830 hc        1 MOL      0.088544
     34 H15        -4.3410    2.9620    3.0410 hc        1 MOL      0.088544
     35 H16        -5.2890    7.6800    4.6420 hc        1 MOL      0.028846
     36 H17        -6.4790    6.2980    4.6000 hc        1 MOL      0.028846
     37 H18        -4.8900    6.0840    5.3130 hc        1 MOL      0.028846
     38 N3         -6.3330    5.6510   -0.4240 n         1 MOL     -0.411838
     39 C13        -7.2160    4.4650   -0.2260 c3        1 MOL      0.124188
     40 C14        -6.7010    3.0810   -0.6810 c         1 MOL      0.466976
     41 O6         -7.1460    2.0160   -0.1640 o         1 MOL     -0.582970
     42 C15        -8.6820    4.6950   -0.5040 c3        1 MOL     -0.243999
     43 C16        -9.0780    5.3110   -1.8870 c         1 MOL      0.764170
     44 O7         -8.3720    5.0360   -2.8830 o         1 MOL     -0.740809
     45 O8        -10.1270    5.9600   -1.9270 o         1 MOL     -0.740809
     46 H19        -6.5140    6.3620   -1.1170 hn        1 MOL      0.269215
     47 H20        -7.2230    4.3310    0.8530 h1        1 MOL     -0.008971
     48 H21        -9.0940    5.3280    0.2860 hc        1 MOL      0.050564
     49 H22        -9.1450    3.7220   -0.3580 hc        1 MOL      0.050564
     50 N4         -5.7240    2.9940   -1.5440 n         1 MOL     -0.301882
     51 C17        -4.9440    1.7700   -1.8840 c3        1 MOL     -0.174116
     52 C18        -5.7430    0.7170   -2.5690 c         1 MOL      0.682359
     53 O9         -6.8340    0.9420   -3.1160 o         1 MOL     -0.519570
     54 H23        -5.4140    3.8450   -2.0160 hn        1 MOL      0.265820
     55 H24        -4.5060    1.3650   -0.9830 h1        1 MOL      0.119981
     56 H25        -4.1930    2.0560   -2.6230 h1        1 MOL      0.119981
     57 N5         -5.1760   -0.4950   -2.4700 n         1 MOL     -0.624492
     58 C19        -5.8080   -1.6820   -2.9300 c3        1 MOL      0.246514
     59 C20        -6.4380   -2.5100   -1.8030 c         1 MOL      0.335358
     60 O10        -7.3220   -3.3490   -2.0410 o         1 MOL     -0.504016
     61 C21        -4.8580   -2.4520   -3.8470 c3        1 MOL     -0.323348
     62 C22        -3.4560   -2.7180   -3.1590 c         1 MOL      0.716921
     63 O11        -2.4810   -1.9200   -3.3040 o         1 MOL     -0.681278
     64 O12        -3.4550   -3.6100   -2.3160 o         1 MOL     -0.681278
     65 H26        -4.3380   -0.6820   -1.9310 hn        1 MOL      0.328223
     66 H27        -6.5960   -1.3830   -3.6070 h1        1 MOL      0.069308
     67 H28        -4.7630   -1.7510   -4.6780 hc        1 MOL      0.054164
     68 H29        -5.2650   -3.3850   -4.2500 hc        1 MOL      0.054164
     69 N6         -6.0920   -2.1840   -0.4530 n         1 MOL     -0.130199
     70 C23        -6.5190   -2.9400    0.7780 c3        1 MOL     -0.386827
     71 C24        -5.7460   -4.2940    0.9380 c         1 MOL      0.727837
     72 O13        -6.0210   -5.0350    1.8520 o         1 MOL     -0.625656
     73 H30        -5.6050   -1.3020   -0.3680 hn        1 MOL      0.192686
     74 H31        -7.5540   -3.2580    0.7220 h1        1 MOL      0.149647
     75 H32        -6.4700   -2.3390    1.6820 h1        1 MOL      0.149647
     76 N7         -4.7140   -4.5460    0.0680 n         1 MOL     -0.420206
     77 C25        -3.8500   -5.7940    0.0870 c3        1 MOL      0.026983
     78 C26        -3.1970   -6.1780    1.4070 c         1 MOL      0.579298
     79 O14        -2.6700   -7.2970    1.5760 o         1 MOL     -0.518802
     80 C27        -4.5770   -6.9150   -0.5470 c3        1 MOL      0.138259
     81 C28        -5.0900   -6.5000   -1.9860 c3        1 MOL     -0.077744
     82 C29        -5.1640   -7.7110   -2.8460 c         1 MOL      0.534977
     83 N8         -5.9480   -7.8000   -3.9430 n         1 MOL     -0.797939
     84 O15        -4.4150   -8.6750   -2.6800 o         1 MOL     -0.544837
     85 H33        -4.5080   -3.9370   -0.7160 hn        1 MOL      0.174548
     86 H34        -3.0570   -5.6210   -0.6410 h1        1 MOL      0.120905
     87 H35        -5.4140   -7.2080    0.0920 hc        1 MOL     -0.035344
     88 H36        -3.8480   -7.7360   -0.5620 hc        1 MOL     -0.035344
     89 H37        -4.4140   -5.8250   -2.5150 hc        1 MOL      0.063121
     90 H38        -6.0350   -5.9610   -1.9440 hc        1 MOL      0.063121
     91 H39        -6.6320   -7.0840   -4.1300 hn        1 MOL      0.353421
     92 H40        -5.6930   -8.5760   -4.5390 hn        1 MOL      0.353421
     93 N9         -3.0660   -5.2020    2.3220 n         1 MOL     -0.579838
     94 C30        -2.3840   -5.4100    3.5980 c3        1 MOL      0.130820
     95 C31        -1.1120   -4.5140    3.7490 c         1 MOL      0.389854
     96 O16        -0.3270   -4.6890    4.6580 o         1 MOL     -0.555797
     97 C32        -3.2830   -5.0900    4.8390 c3        1 MOL      0.331326
     98 C33        -3.8580   -3.6440    4.8760 c3        1 MOL     -0.438629
     99 C34        -4.4100   -6.1600    4.9950 c3        1 MOL     -0.438629
    100 H41        -3.5840   -4.3480    2.2070 hn        1 MOL      0.284418
    101 H42        -2.0900   -6.4490    3.6500 h1        1 MOL      0.060981
    102 H43        -2.5840   -5.1800    5.6670 hc        1 MOL     -0.044287
    103 H44        -4.2570   -3.4200    5.8690 hc        1 MOL      0.102974
    104 H45        -3.0230   -2.9570    4.6980 hc        1 MOL      0.102974
    105 H46        -4.5520   -3.4740    4.0610 hc        1 MOL      0.102974
    106 H47        -4.0690   -7.1940    4.8650 hc        1 MOL      0.102974
    107 H48        -4.9780   -5.9920    5.9170 hc        1 MOL      0.102974
    108 H49        -5.0210   -6.0770    4.1010 hc        1 MOL      0.102974
    109 N10        -1.0520   -3.4580    2.9330 n         1 MOL     -0.258704
    110 C35         0.1470   -2.6390    2.6640 c3        1 MOL      0.342611
    111 C36         0.7270   -2.9610    1.2620 c         1 MOL      0.515909
    112 O17         0.1290   -3.7180    0.4880 o         1 MOL     -0.519814
    113 C37        -0.2050   -1.1920    2.9580 c3        1 MOL     -0.331070
    114 C38         0.9730   -0.3110    3.3380 c         1 MOL      0.607436
    115 N11         1.0650    0.1540    4.5540 n         1 MOL     -0.720055
    116 O18         1.8200    0.0170    2.5620 o         1 MOL     -0.472203
    117 H50        -1.8290   -3.3990    2.2950 hn        1 MOL      0.183559
    118 H51         0.8610   -2.9030    3.4480 h1        1 MOL      0.013224
    119 H52        -0.9690   -1.1800    3.7280 hc        1 MOL      0.078378
    120 H53        -0.7060   -0.8310    2.0550 hc        1 MOL      0.078378
    121 H54         0.2510    0.1440    5.1480 hn        1 MOL      0.330133
    122 H55         1.6850    0.9330    4.7130 hn        1 MOL      0.330133
    123 N12         1.9540   -2.4720    1.0230 n         1 MOL     -0.617508
    124 C39         2.8220   -2.8270   -0.1710 c3        1 MOL      0.134429
    125 C40         4.3030   -2.4500    0.2400 c         1 MOL      0.643962
    126 O19         4.6030   -1.5560    1.0720 o         1 MOL     -0.608866
    127 C41         2.3430   -2.1010   -1.4190 c3        1 MOL     -0.160877
    128 C42         3.1950   -2.3570   -2.6430 ca        1 MOL     -0.072547
    129 C43         4.3470   -1.5660   -2.9120 ca        1 MOL     -0.100538
    130 C44         2.9240   -3.5000   -3.4900 ca        1 MOL     -0.100538
    131 C45         5.0380   -1.8690   -4.0750 ca        1 MOL     -0.269746
    132 C46         3.6610   -3.7870   -4.6460 ca        1 MOL     -0.269746
    133 C47         4.7820   -2.9640   -4.9060 ca        1 MOL      0.356298
    134 O20         5.4650   -3.3060   -6.0110 oh        1 MOL     -0.504734
    135 H56         2.3110   -1.7120    1.5870 hn        1 MOL      0.289840
    136 H57         2.6960   -3.9030   -0.2460 h1        1 MOL      0.070843
    137 H58         2.3450   -1.0240   -1.2810 hc        1 MOL      0.133559
    138 H59         1.3360   -2.4410   -1.6520 hc        1 MOL      0.133559
    139 H60         4.5350   -0.7130   -2.2720 ha        1 MOL      0.132706
    140 H61         2.1020   -4.1050   -3.1520 ha        1 MOL      0.132706
    141 H62         5.8550   -1.2160   -4.3590 ha        1 MOL      0.140615
    142 H63         3.3220   -4.5820   -5.2970 ha        1 MOL      0.140615
    143 H64         6.0550   -2.6220   -6.3380 ho        1 MOL      0.362459
    144 N13         5.2510   -3.1960   -0.3210 n         1 MOL     -0.602428
    145 C48         6.6830   -3.0730   -0.0050 c3        1 MOL      0.136373
    146 C49         7.4020   -2.2590   -1.0560 c         1 MOL      0.673793
    147 O21         7.8120   -2.7910   -2.0980 o         1 MOL     -0.562037
    148 C50         7.3600   -4.4400    0.2570 c3        1 MOL      0.087161
    149 C51         8.8150   -4.3460    0.6560 c3        1 MOL     -0.303989
    150 C52         9.3550   -5.7660    1.1170 c         1 MOL      0.706928
    151 O22         9.0160   -6.1960    2.2350 o         1 MOL     -0.698101
    152 O23        10.1490   -6.4320    0.3370 o         1 MOL     -0.698101
    153 H65         5.0250   -3.9630   -0.9460 hn        1 MOL      0.310762
    154 H66         6.7600   -2.4830    0.9130 h1        1 MOL      0.101005
    155 H67         7.2760   -5.1110   -0.6030 hc        1 MOL      0.002749
    156 H68         6.8290   -4.9690    1.0540 hc        1 MOL      0.002749
    157 H69         8.8620   -3.7010    1.5360 hc        1 MOL      0.054348
    158 H70         9.5240   -4.0010   -0.0860 hc        1 MOL      0.054348
    159 N14         7.5500   -0.8770   -0.9700 n         1 MOL     -0.662136
    160 C53         7.0550    0.1040   -0.0160 c3        1 MOL     -0.001621
    161 C54         7.6760    0.0080    1.4140 c         1 MOL      0.454558
    162 O24         8.8520   -0.3930    1.5400 o         1 MOL     -0.514387
    163 C55         7.3530    1.4630   -0.5620 c3        1 MOL      0.231304
    164 C56         6.4930    1.9840   -1.7220 c3        1 MOL     -0.246789
    165 C57         6.6920    3.5050   -1.8140 c         1 MOL      0.674921
    166 O25         7.3840    3.8800   -2.7780 o         1 MOL     -0.686662
    167 O26         6.1970    4.3080   -1.0140 o         1 MOL     -0.686662
    168 H71         8.0840   -0.4530   -1.7210 hn        1 MOL      0.328296
    169 H72         5.9740   -0.0390    0.0670 h1        1 MOL      0.094655
    170 H73         8.4260    1.5850   -0.7130 hc        1 MOL     -0.050808
    171 H74         7.1540    2.1050    0.2970 hc        1 MOL     -0.050808
    172 H75         5.4640    1.6910   -1.5050 hc        1 MOL      0.047929
    173 H76         6.7290    1.4960   -2.6610 hc        1 MOL      0.047929
    174 N15         6.9480    0.3950    2.4900 n         1 MOL     -0.243957
    175 C58         7.3080    0.3260    3.9070 c3        1 MOL     -0.374484
    176 H77         6.6870    1.0200    4.4740 h1        1 MOL      0.137903
    177 H78         7.1480   -0.6880    4.2750 h1        1 MOL      0.137903
    178 H79         8.3560    0.5950    4.0300 h1        1 MOL      0.137903
    179 H80         6.0390    0.8240    2.3330 hn        1 MOL      0.260326
    180 Ca1         4.4830    6.1340   -0.4270 Ca        1 MOL      1.785000
    181 O27         4.0290    8.8010   -0.8220 oh        1 MOL     -0.870026
    182 H81         3.3410    9.3310   -0.4200 ho        1 MOL      0.413899
    183 H82         4.5880    9.4320   -1.2760 ho        1 MOL      0.413899
    184 O28         5.8180    7.2960    1.6890 oh        1 MOL     -0.870026
    185 H83         6.7470    7.4760    1.5150 ho        1 MOL      0.413899
    186 H84         5.6910    7.5590    2.5990 ho        1 MOL      0.413899
    187 O29         6.8370    7.3190   -1.4330 oh        1 MOL     -0.870026
    188 H85         7.4610    6.7980   -1.9460 ho        1 MOL      0.413899
    189 H86         7.0650    8.2190   -1.6200 ho        1 MOL      0.413899
    190 O30         5.1300    4.5600    1.6150 oh        1 MOL     -0.870026
    191 H87         5.6000    4.7280    2.4360 ho        1 MOL      0.413899
    192 H88         4.6990    3.7130    1.7560 ho        1 MOL      0.413899
    193 O31         4.1340    5.8370   -3.2110 oh        1 MOL     -0.870026
    194 H89         3.2370    5.8730   -3.5540 ho        1 MOL      0.413899
    195 H90         4.6630    5.5650   -3.9650 ho        1 MOL      0.413899
@<TRIPOS>BOND
     1    1    2 1   
     2    1    4 1   
     3    1    5 1   
     4    1    6 1   
     5    2    3 2   
     6    2    7 1   
     7    7    8 1   
     8    7   15 1   
     9    8    9 1   
    10    8   11 1   
    11    8   16 1   
    12    9   10 2   
    13    9   19 1   
    14   11   12 1   
    15   11   17 1   
    16   11   18 1   
    17   12   13 1   
    18   12   14 1   
    19   19   20 1   
    20   19   27 1   
    21   20   21 1   
    22   20   23 1   
    23   20   28 1   
    24   21   22 2   
    25   21   38 1   
    26   23   24 1   
    27   23   25 1   
    28   23   29 1   
    29   24   26 1   
    30   24   30 1   
    31   24   31 1   
    32   25   32 1   
    33   25   33 1   
    34   25   34 1   
    35   26   35 1   
    36   26   36 1   
    37   26   37 1   
    38   38   39 1   
    39   38   46 1   
    40   39   40 1   
    41   39   42 1   
    42   39   47 1   
    43   40   41 2   
    44   40   50 1   
    45   42   43 1   
    46   42   48 1   
    47   42   49 1   
    48   43   44 1   
    49   43   45 1   
    50   50   51 1   
    51   50   54 1   
    52   51   52 1   
    53   51   55 1   
    54   51   56 1   
    55   52   53 2   
    56   52   57 1   
    57   57   58 1   
    58   57   65 1   
    59   58   59 1   
    60   58   61 1   
    61   58   66 1   
    62   59   60 2   
    63   59   69 1   
    64   61   62 1   
    65   61   67 1   
    66   61   68 1   
    67   62   63 1   
    68   62   64 1   
    69   69   70 1   
    70   69   73 1   
    71   70   71 1   
    72   70   74 1   
    73   70   75 1   
    74   71   72 2   
    75   71   76 1   
    76   76   77 1   
    77   76   85 1   
    78   77   78 1   
    79   77   80 1   
    80   77   86 1   
    81   78   79 2   
    82   78   93 1   
    83   80   81 1   
    84   80   87 1   
    85   80   88 1   
    86   81   82 1   
    87   81   89 1   
    88   81   90 1   
    89   82   83 1   
    90   82   84 2   
    91   83   91 1   
    92   83   92 1   
    93   93   94 1   
    94   93  100 1   
    95   94   95 1   
    96   94   97 1   
    97   94  101 1   
    98   95   96 2   
    99   95  109 1   
   100   97   98 1   
   101   97   99 1   
   102   97  102 1   
   103   98  103 1   
   104   98  104 1   
   105   98  105 1   
   106   99  106 1   
   107   99  107 1   
   108   99  108 1   
   109  109  110 1   
   110  109  117 1   
   111  110  111 1   
   112  110  113 1   
   113  110  118 1   
   114  111  112 2   
   115  111  123 1   
   116  113  114 1   
   117  113  119 1   
   118  113  120 1   
   119  114  115 1   
   120  114  116 2   
   121  115  121 1   
   122  115  122 1   
   123  123  124 1   
   124  123  135 1   
   125  124  125 1   
   126  124  127 1   
   127  124  136 1   
   128  125  126 2   
   129  125  144 1   
   130  127  128 1   
   131  127  137 1   
   132  127  138 1   
   133  128  129 ar  
   134  128  130 ar  
   135  129  131 ar  
   136  129  139 1   
   137  130  132 ar  
   138  130  140 1   
   139  131  133 ar  
   140  131  141 1   
   141  132  133 ar  
   142  132  142 1   
   143  133  134 1   
   144  134  143 1   
   145  144  145 1   
   146  144  153 1   
   147  145  146 1   
   148  145  148 1   
   149  145  154 1   
   150  146  147 2   
   151  146  159 1   
   152  148  149 1   
   153  148  155 1   
   154  148  156 1   
   155  149  150 1   
   156  149  157 1   
   157  149  158 1   
   158  150  151 1   
   159  150  152 1   
   160  159  160 1   
   161  159  168 1   
   162  160  161 1   
   163  160  163 1   
   164  160  169 1   
   165  161  162 2   
   166  161  174 1   
   167  163  164 1   
   168  163  170 1   
   169  163  171 1   
   170  164  165 1   
   171  164  172 1   
   172  164  173 1   
   173  165  166 1   
   174  165  167 1   
   175  174  175 1   
   176  174  179 1   
   177  175  176 1   
   178  175  177 1   
   179  175  178 1   
   180  181  182 1   
   181  181  183 1   
   182  184  185 1   
   183  184  186 1   
   184  187  188 1   
   185  187  189 1   
   186  190  191 1   
   187  190  192 1   
   188  193  194 1   
   189  193  195 1   
@<TRIPOS>SUBSTRUCTURE
     1 MOL         1 TEMP              0 ****  ****    0 ROOT
