@<TRIPOS>MOLECULE
MOL
  186   183     1     0     0
SMALL
resp


@<TRIPOS>ATOM
      1 C1          8.9250   -0.8340    2.4210 c3        1 MOL     -0.598154
      2 C2          7.8060   -0.5670    1.4470 c         1 MOL      0.853900
      3 O1          6.6420   -0.8170    1.7550 o         1 MOL     -0.671538
      4 H1          8.7360   -1.7730    2.9430 hc        1 MOL      0.146718
      5 H2          9.8690   -0.9030    1.8800 hc        1 MOL      0.146718
      6 H3          8.9800   -0.0210    3.1450 hc        1 MOL      0.146718
      7 N1          8.2020   -0.2580    0.1560 n         1 MOL     -0.749586
      8 C3          7.3840   -0.0510   -1.0170 c3        1 MOL      0.159468
      9 C4          6.5800   -1.1810   -1.6280 c         1 MOL      0.554972
     10 O2          6.0980   -1.0920   -2.7710 o         1 MOL     -0.502407
     11 C5          8.3450    0.7090   -2.0180 c3        1 MOL     -0.263491
     12 C6          9.0670    1.9120   -1.4520 c         1 MOL      0.765326
     13 O3          8.9470    2.3760   -0.2970 o         1 MOL     -0.665516
     14 O4          9.8420    2.4330   -2.2470 o         1 MOL     -0.665516
     15 H4          9.1730    0.0490    0.1060 hn        1 MOL      0.352301
     16 H5          6.6400    0.6900   -0.7100 h1        1 MOL      0.051523
     17 H6          7.6820    1.0330   -2.8190 hc        1 MOL      0.078405
     18 H7          9.0290   -0.0450   -2.4160 hc        1 MOL      0.078405
     19 N2          6.4070   -2.2610   -0.8950 n         1 MOL     -0.428171
     20 C7          5.8440   -3.5680   -1.2390 c3        1 MOL     -0.039217
     21 C8          4.4370   -3.5010   -1.9120 c         1 MOL      0.475961
     22 O5          4.1650   -4.2810   -2.8360 o         1 MOL     -0.553770
     23 C9          5.9730   -4.5270   -0.0080 c3        1 MOL     -0.014992
     24 C10         7.4480   -4.8410    0.3550 c3        1 MOL     -0.152233
     25 C11         7.7080   -5.8250    1.4360 c3        1 MOL      0.175619
     26 C12         9.1990   -5.8650    1.8820 c3        1 MOL      0.054204
     27 N3          9.3890   -6.8250    3.0130 n4        1 MOL     -0.180791
     28 H8          6.6700   -2.2000    0.0840 hn        1 MOL      0.273833
     29 H9          6.4790   -3.9610   -2.0260 h1        1 MOL      0.098948
     30 H10         5.5420   -5.4980   -0.2440 hc        1 MOL      0.048286
     31 H11         5.3910   -4.2040    0.8460 hc        1 MOL      0.048286
     32 H12         7.8280   -3.8790    0.6920 hc        1 MOL      0.038734
     33 H13         7.9090   -5.2160   -0.5660 hc        1 MOL      0.038734
     34 H14         7.3980   -6.8370    1.1810 hc        1 MOL     -0.021503
     35 H15         7.1270   -5.5790    2.3240 hc        1 MOL     -0.021503
     36 H16         9.5780   -4.9330    2.3170 hx        1 MOL      0.049382
     37 H17         9.8040   -6.1150    1.0120 hx        1 MOL      0.049382
     38 H18         8.9740   -6.5210    3.8740 hn        1 MOL      0.208049
     39 H19         8.9360   -7.6950    2.7750 hn        1 MOL      0.208049
     40 H20        10.3590   -6.9100    3.2570 hn        1 MOL      0.208049
     41 N4          3.5470   -2.5650   -1.5370 n         1 MOL     -0.057672
     42 C13         3.4960   -1.8740   -0.2120 c3        1 MOL     -0.659313
     43 C14         3.3430   -0.3650   -0.3830 c         1 MOL      0.837203
     44 O6          2.9180    0.1680   -1.4150 o         1 MOL     -0.595733
     45 C15         2.3200   -2.3580    0.6950 c3        1 MOL     -0.096557
     46 C16         0.9420   -2.4620   -0.0370 c         1 MOL      0.914230
     47 O7          0.6560   -1.7150   -0.9260 o         1 MOL     -0.753111
     48 O8          0.3380   -3.4560    0.2290 o         1 MOL     -0.753111
     49 H21         2.8450   -2.3170   -2.2170 hn        1 MOL      0.240083
     50 H22         4.4310   -2.0110    0.3260 h1        1 MOL      0.241463
     51 H23         2.1250   -1.7120    1.5620 hc        1 MOL      0.032797
     52 H24         2.6160   -3.3040    1.1400 hc        1 MOL      0.032797
     53 N5          3.6700    0.3510    0.7070 n         1 MOL     -0.486511
     54 C17         4.0070    1.8080    0.6240 c3        1 MOL     -0.209087
     55 C18         2.8330    2.6190    0.2570 c         1 MOL      0.735670
     56 O9          1.7520    2.0750    0.1550 o         1 MOL     -0.768542
     57 H25         4.0900   -0.1590    1.4790 hn        1 MOL      0.330817
     58 H26         4.6990    1.8570   -0.2200 h1        1 MOL      0.151790
     59 H27         4.4510    2.1340    1.5640 h1        1 MOL      0.151790
     60 N6          3.0600    3.8970    0.0670 n         1 MOL     -0.572198
     61 C19         2.0910    4.8130   -0.5930 c3        1 MOL      0.459015
     62 C20         2.2970    6.2600   -0.0070 c         1 MOL      0.399715
     63 O10         3.3630    6.5960    0.5140 o         1 MOL     -0.521092
     64 C21         2.3380    4.7560   -2.0750 c3        1 MOL     -0.248296
     65 C22         2.4770    3.3040   -2.7050 c         1 MOL      0.695111
     66 O11         3.4800    3.1120   -3.3910 o         1 MOL     -0.632895
     67 O12         1.5520    2.4370   -2.6750 o         1 MOL     -0.632895
     68 H28         3.9930    4.2440    0.2270 hn        1 MOL      0.280474
     69 H29         1.0760    4.4510   -0.4410 h1        1 MOL     -0.084063
     70 H30         3.1800    5.4180   -2.2380 hc        1 MOL      0.038696
     71 H31         1.5420    5.3570   -2.5230 hc        1 MOL      0.038696
     72 N7          1.2970    7.0820   -0.0990 n         1 MOL     -0.410000
     73 C23        -0.0890    6.7550   -0.5070 c3        1 MOL      0.006254
     74 C24        -0.8270    5.8860    0.5420 c         1 MOL      0.627265
     75 O13        -0.3420    5.6950    1.5950 o         1 MOL     -0.502954
     76 H32         1.5190    8.0630   -0.0020 hn        1 MOL      0.307879
     77 H33        -0.0730    6.2290   -1.4650 h1        1 MOL      0.028428
     78 H34        -0.7080    7.6500   -0.4910 h1        1 MOL      0.028428
     79 N8         -2.0030    5.3330    0.2620 n         1 MOL     -0.518666
     80 C25        -2.6670    4.2680    0.9530 c3        1 MOL     -0.062836
     81 C26        -1.7060    3.0800    1.1430 c         1 MOL      0.621081
     82 O14        -1.1080    2.5680    0.1290 o         1 MOL     -0.450992
     83 C27        -4.0110    3.9010    0.2930 c3        1 MOL      0.293810
     84 C28        -4.6610    2.7160    1.0410 c3        1 MOL     -0.280835
     85 O15        -3.6840    3.5640   -0.9990 oh        1 MOL     -0.638202
     86 H35        -2.3970    5.6840   -0.5930 hn        1 MOL      0.287012
     87 H36        -2.9730    4.5990    1.9420 h1        1 MOL      0.056574
     88 H37        -4.6800    4.7620    0.2850 h1        1 MOL      0.035627
     89 H38        -4.5150    3.3320   -1.4100 ho        1 MOL      0.435461
     90 H39        -4.1620    1.7520    0.9030 hc        1 MOL      0.063470
     91 H40        -4.5440    2.9420    2.0980 hc        1 MOL      0.063470
     92 H41        -5.7130    2.7450    0.7770 hc        1 MOL      0.063470
     93 N9         -1.5180    2.5910    2.3710 n         1 MOL     -0.387965
     94 C29        -0.8130    1.4410    2.9330 c3        1 MOL     -0.036870
     95 C30        -1.0120    0.1730    2.1700 c         1 MOL      0.201808
     96 O16        -0.3690    0.0270    1.1680 o         1 MOL     -0.341058
     97 C31         0.6010    1.7680    3.4390 c3        1 MOL      0.186406
     98 C32         0.7120    3.0340    4.3370 c3        1 MOL      0.052778
     99 C33         1.1450    0.6360    4.2570 c3        1 MOL     -0.421544
    100 C34         2.1510    3.4040    4.7320 c3        1 MOL     -0.116924
    101 H42        -2.0530    3.1070    3.0630 hn        1 MOL      0.224984
    102 H43        -1.2760    1.2560    3.8980 h1        1 MOL      0.051842
    103 H44         1.3590    1.8010    2.6550 hc        1 MOL      0.079895
    104 H45         0.0060    2.9280    5.1720 hc        1 MOL     -0.015896
    105 H46         0.4330    3.9210    3.7720 hc        1 MOL     -0.015896
    106 H47         1.1670   -0.3040    3.7020 hc        1 MOL      0.097714
    107 H48         2.1980    0.7610    4.5170 hc        1 MOL      0.097714
    108 H49         0.6150    0.3970    5.1840 hc        1 MOL      0.097714
    109 H50         2.1260    4.4450    5.0570 hc        1 MOL      0.031270
    110 H51         2.4700    2.7640    5.5480 hc        1 MOL      0.031270
    111 H52         2.8520    3.3700    3.8940 hc        1 MOL      0.031270
    112 N10        -1.8870   -0.7210    2.7050 n         1 MOL     -0.049029
    113 C35        -2.3650   -1.9180    2.0470 c3        1 MOL     -0.281025
    114 C36        -3.8670   -1.9030    1.8140 c         1 MOL      0.746889
    115 O17        -4.3830   -2.8660    1.1350 o         1 MOL     -0.623974
    116 C37        -1.9320   -3.1320    2.8140 c3        1 MOL      0.359021
    117 C38        -2.2060   -3.1360    4.2880 c3        1 MOL     -0.266693
    118 O18        -0.5260   -3.3380    2.7310 oh        1 MOL     -0.606536
    119 H53        -2.1250   -0.4790    3.6530 hn        1 MOL      0.160571
    120 H54        -1.8980   -2.0390    1.0670 h1        1 MOL      0.109558
    121 H55        -2.4200   -3.9960    2.3540 h1        1 MOL      0.017007
    122 H56        -0.2960   -3.3110    1.7970 ho        1 MOL      0.361423
    123 H57        -1.5240   -2.5440    4.8890 hc        1 MOL      0.059505
    124 H58        -3.2640   -2.9730    4.4830 hc        1 MOL      0.059505
    125 H59        -2.1170   -4.1840    4.5870 hc        1 MOL      0.059505
    126 N11        -4.6340   -0.9800    2.3750 n         1 MOL     -0.356283
    127 C39        -6.1250   -0.9360    2.3540 c3        1 MOL     -0.213520
    128 C40        -6.6130   -0.7290    0.9020 c         1 MOL      0.496474
    129 O19        -6.3330    0.3490    0.3960 o         1 MOL     -0.427789
    130 C41        -6.7660    0.0840    3.2910 c3        1 MOL      0.403353
    131 C42        -8.2840    0.0380    3.2710 c3        1 MOL     -0.436879
    132 O20        -6.4440   -0.1200    4.6800 oh        1 MOL     -0.601023
    133 H60        -4.1790   -0.1690    2.7680 hn        1 MOL      0.191132
    134 H61        -6.3760   -1.8970    2.8080 h1        1 MOL      0.107928
    135 H62        -6.5160    1.1150    3.0710 h1        1 MOL      0.013536
    136 H63        -5.5250    0.1340    4.7890 ho        1 MOL      0.376083
    137 H64        -8.7020   -0.7720    3.8630 hc        1 MOL      0.125123
    138 H65        -8.6620    0.9860    3.6660 hc        1 MOL      0.125123
    139 H66        -8.6570   -0.0300    2.2530 hc        1 MOL      0.125123
    140 N12        -7.2020   -1.7430    0.2430 n         1 MOL     -0.389827
    141 C43        -7.4560   -1.7930   -1.2040 c3        1 MOL     -0.029165
    142 C44        -6.2640   -1.3340   -2.1020 c         1 MOL      0.456054
    143 O21        -6.5040   -0.6140   -3.0930 o         1 MOL     -0.509148
    144 C45        -8.8070   -1.0950   -1.4900 c3        1 MOL     -0.186768
    145 C46       -10.0480   -1.8500   -0.8880 c3        1 MOL      0.074983
    146 C47       -11.4410   -1.3870   -1.4020 c3        1 MOL     -0.208123
    147 C48       -12.5620   -2.0660   -0.6260 c3        1 MOL      0.129658
    148 N13       -12.6640   -3.5560   -0.8680 n4        1 MOL     -0.512535
    149 H67        -7.5190   -2.4890    0.8490 hn        1 MOL      0.259572
    150 H68        -7.7400   -2.8170   -1.4460 h1        1 MOL      0.080142
    151 H69        -8.8440   -0.9010   -2.5550 hc        1 MOL      0.103131
    152 H70        -8.7940   -0.0560   -1.1650 hc        1 MOL      0.103131
    153 H71       -10.0950   -1.7700    0.1920 hc        1 MOL     -0.008071
    154 H72        -9.9500   -2.9320   -1.0160 hc        1 MOL     -0.008071
    155 H73       -11.4080   -1.6530   -2.4670 hc        1 MOL      0.098891
    156 H74       -11.5690   -0.3090   -1.3020 hc        1 MOL      0.098891
    157 H75       -13.4850   -1.5940   -0.9610 hx        1 MOL      0.077854
    158 H76       -12.4950   -1.9200    0.4490 hx        1 MOL      0.077854
    159 H77       -13.0550   -3.7520   -1.7860 hn        1 MOL      0.369831
    160 H78       -11.7180   -3.9110   -0.8480 hn        1 MOL      0.369831
    161 H79       -13.2890   -3.9210   -0.1610 hn        1 MOL      0.369831
    162 N14        -5.0780   -1.8220   -1.8730 n         1 MOL     -0.467290
    163 C49        -3.8480   -1.4180   -2.4770 c3        1 MOL      0.403506
    164 C50        -2.6700   -1.7740   -1.5500 c         1 MOL     -0.019117
    165 O22        -2.1620   -0.8050   -0.9940 o         1 MOL     -0.499519
    166 C51        -3.7050   -1.9200   -3.9590 c3        1 MOL     -0.047777
    167 C52        -2.3070   -1.9530   -4.5390 c3        1 MOL     -0.006819
    168 C53        -1.4440   -0.6610   -4.5870 c         1 MOL      0.577248
    169 O23        -0.5960   -0.4670   -3.6460 o         1 MOL     -0.666314
    170 O24        -1.6270    0.2120   -5.4900 o         1 MOL     -0.666314
    171 H80        -4.9640   -2.3850   -1.0370 hn        1 MOL      0.335894
    172 H81        -3.8640   -0.3240   -2.5270 h1        1 MOL      0.079984
    173 H82        -4.3450   -1.3030   -4.5810 hc        1 MOL     -0.002349
    174 H83        -4.1140   -2.9340   -3.9970 hc        1 MOL     -0.002349
    175 H84        -2.4060   -2.3200   -5.5640 hc        1 MOL      0.005731
    176 H85        -1.7110   -2.7640   -4.1170 hc        1 MOL      0.005731
    177 N15        -2.1560   -2.9800   -1.2990 n         1 MOL     -0.185188
    178 C54        -2.5890   -4.3390   -1.8290 c3        1 MOL     -0.196240
    179 H86        -3.6090   -4.5470   -1.5050 h1        1 MOL      0.084674
    180 H87        -2.5490   -4.3350   -2.9180 h1        1 MOL      0.084674
    181 H88        -1.9220   -5.1100   -1.4430 h1        1 MOL      0.084674
    182 H89        -1.3680   -3.0540   -0.6860 hn        1 MOL      0.384641
    183 Ca1         0.1270    0.6630   -1.5010 Ca        1 MOL      1.715955
    184 O25        -1.6390    2.9030   -2.6990 oh        1 MOL     -0.874695
    185 H90        -1.4530    3.6890   -3.2030 ho        1 MOL      0.413050
    186 H91        -2.3940    3.1290   -2.1550 ho        1 MOL      0.413050
@<TRIPOS>BOND
     1    1    2 1   
     2    1    4 1   
     3    1    5 1   
     4    1    6 1   
     5    2    3 2   
     6    2    7 1   
     7    7    8 1   
     8    7   15 1   
     9    8    9 1   
    10    8   11 1   
    11    8   16 1   
    12    9   10 2   
    13    9   19 1   
    14   11   12 1   
    15   11   17 1   
    16   11   18 1   
    17   12   13 1   
    18   12   14 1   
    19   19   20 1   
    20   19   28 1   
    21   20   21 1   
    22   20   23 1   
    23   20   29 1   
    24   21   22 2   
    25   21   41 1   
    26   23   24 1   
    27   23   30 1   
    28   23   31 1   
    29   24   25 1   
    30   24   32 1   
    31   24   33 1   
    32   25   26 1   
    33   25   34 1   
    34   25   35 1   
    35   26   27 1   
    36   26   36 1   
    37   26   37 1   
    38   27   38 1   
    39   27   39 1   
    40   27   40 1   
    41   41   42 1   
    42   41   49 1   
    43   42   43 1   
    44   42   45 1   
    45   42   50 1   
    46   43   44 2   
    47   43   53 1   
    48   45   46 1   
    49   45   51 1   
    50   45   52 1   
    51   46   47 1   
    52   46   48 1   
    53   53   54 1   
    54   53   57 1   
    55   54   55 1   
    56   54   58 1   
    57   54   59 1   
    58   55   56 2   
    59   55   60 1   
    60   60   61 1   
    61   60   68 1   
    62   61   62 1   
    63   61   64 1   
    64   61   69 1   
    65   62   63 2   
    66   62   72 1   
    67   64   65 1   
    68   64   70 1   
    69   64   71 1   
    70   65   66 1   
    71   65   67 1   
    72   72   73 1   
    73   72   76 1   
    74   73   74 1   
    75   73   77 1   
    76   73   78 1   
    77   74   75 2   
    78   74   79 1   
    79   79   80 1   
    80   79   86 1   
    81   80   81 1   
    82   80   83 1   
    83   80   87 1   
    84   81   82 2   
    85   81   93 1   
    86   83   84 1   
    87   83   85 1   
    88   83   88 1   
    89   84   90 1   
    90   84   91 1   
    91   84   92 1   
    92   85   89 1   
    93   93   94 1   
    94   93  101 1   
    95   94   95 1   
    96   94   97 1   
    97   94  102 1   
    98   95   96 2   
    99   95  112 1   
   100   97   98 1   
   101   97   99 1   
   102   97  103 1   
   103   98  100 1   
   104   98  104 1   
   105   98  105 1   
   106   99  106 1   
   107   99  107 1   
   108   99  108 1   
   109  100  109 1   
   110  100  110 1   
   111  100  111 1   
   112  112  113 1   
   113  112  119 1   
   114  113  114 1   
   115  113  116 1   
   116  113  120 1   
   117  114  115 2   
   118  114  126 1   
   119  116  117 1   
   120  116  118 1   
   121  116  121 1   
   122  117  123 1   
   123  117  124 1   
   124  117  125 1   
   125  118  122 1   
   126  126  127 1   
   127  126  133 1   
   128  127  128 1   
   129  127  130 1   
   130  127  134 1   
   131  128  129 2   
   132  128  140 1   
   133  130  131 1   
   134  130  132 1   
   135  130  135 1   
   136  131  137 1   
   137  131  138 1   
   138  131  139 1   
   139  132  136 1   
   140  140  141 1   
   141  140  149 1   
   142  141  142 1   
   143  141  144 1   
   144  141  150 1   
   145  142  143 2   
   146  142  162 1   
   147  144  145 1   
   148  144  151 1   
   149  144  152 1   
   150  145  146 1   
   151  145  153 1   
   152  145  154 1   
   153  146  147 1   
   154  146  155 1   
   155  146  156 1   
   156  147  148 1   
   157  147  157 1   
   158  147  158 1   
   159  148  159 1   
   160  148  160 1   
   161  148  161 1   
   162  162  163 1   
   163  162  171 1   
   164  163  164 1   
   165  163  166 1   
   166  163  172 1   
   167  164  165 2   
   168  164  177 1   
   169  166  167 1   
   170  166  173 1   
   171  166  174 1   
   172  167  168 1   
   173  167  175 1   
   174  167  176 1   
   175  168  169 1   
   176  168  170 1   
   177  177  178 1   
   178  177  182 1   
   179  178  179 1   
   180  178  180 1   
   181  178  181 1   
   182  184  185 1   
   183  184  186 1   
@<TRIPOS>SUBSTRUCTURE
     1 MOL         1 TEMP              0 ****  ****    0 ROOT
