@<TRIPOS>MOLECULE
MOL
  185   180     1     0     0
SMALL
resp


@<TRIPOS>ATOM
      1 C1         -5.7560    2.2630   -0.7590 c3        1 MOL     -0.232816
      2 C2         -7.2650    2.3300   -0.2520 c         1 MOL      0.791850
      3 O1         -7.4450    2.2160    0.9730 o         1 MOL     -0.552832
      4 H1         -5.1040    2.7330   -0.0230 hc        1 MOL      0.039955
      5 H2         -5.4630    1.2220   -0.8900 hc        1 MOL      0.039955
      6 H3         -5.6680    2.7890   -1.7100 hc        1 MOL      0.039955
      7 N1         -8.2470    2.3800   -1.1020 n         1 MOL     -0.592190
      8 C3         -9.6710    2.1510   -0.7930 c3        1 MOL     -0.049627
      9 C4        -10.0170    0.7150   -0.3140 c         1 MOL      0.601864
     10 O2        -11.1370    0.4780    0.0740 o         1 MOL     -0.564316
     11 C5        -10.1920    3.2740    0.1690 c3        1 MOL     -0.316447
     12 C6         -9.8360    4.7440    0.0380 c         1 MOL      0.749311
     13 O3         -9.2550    5.3100    0.9450 o         1 MOL     -0.651001
     14 O4        -10.2030    5.3850   -0.9930 o         1 MOL     -0.651001
     15 H4         -8.0770    2.4310   -2.1000 hn        1 MOL      0.306128
     16 H5        -10.1950    2.3240   -1.7320 h1        1 MOL      0.108074
     17 H6         -9.9630    2.9890    1.1960 hc        1 MOL      0.106072
     18 H7        -11.2760    3.2120    0.0520 hc        1 MOL      0.106072
     19 N2         -9.1680   -0.2430   -0.5480 n         1 MOL     -0.376269
     20 C7         -9.2610   -1.6590   -0.2040 c3        1 MOL      0.043231
     21 C8         -8.0130   -2.1610    0.4800 c         1 MOL      0.522842
     22 O5         -8.0640   -3.2970    0.8900 o         1 MOL     -0.558988
     23 C9         -9.5810   -2.4720   -1.5630 c3        1 MOL     -0.042271
     24 C10       -11.0400   -2.1430   -2.0230 c3        1 MOL      0.027159
     25 C11       -11.3650   -2.8940   -3.2960 c3        1 MOL      0.114273
     26 C12       -12.7940   -2.5800   -3.5220 c3        1 MOL      0.005195
     27 N3        -13.4460   -3.2550   -4.5870 n4        1 MOL     -0.122786
     28 H8         -8.2690    0.0390   -0.9010 hn        1 MOL      0.201492
     29 H9        -10.1940   -1.7480    0.3550 h1        1 MOL      0.114429
     30 H10        -9.5040   -3.5570   -1.4550 hc        1 MOL      0.006652
     31 H11        -8.8460   -2.1100   -2.2740 hc        1 MOL      0.006652
     32 H12       -11.0050   -1.0710   -2.1980 hc        1 MOL      0.002437
     33 H13       -11.6680   -2.3750   -1.1640 hc        1 MOL      0.002437
     34 H14       -11.2100   -3.9750   -3.2920 hc        1 MOL     -0.013314
     35 H15       -10.7470   -2.5560   -4.1210 hc        1 MOL     -0.013314
     36 H16       -12.9380   -1.5110   -3.6680 hx        1 MOL      0.062592
     37 H17       -13.2290   -2.9200   -2.5840 hx        1 MOL      0.062592
     38 H18       -13.4080   -4.2550   -4.4430 hn        1 MOL      0.200450
     39 H19       -14.4170   -2.9680   -4.6320 hn        1 MOL      0.200450
     40 H20       -12.9630   -3.0830   -5.4570 hn        1 MOL      0.200450
     41 N4         -6.8510   -1.4800    0.4650 n         1 MOL     -0.337152
     42 C13        -5.5990   -1.9390    0.9910 c3        1 MOL      0.060589
     43 C14        -5.3850   -1.6540    2.4890 c         1 MOL      0.461012
     44 O6         -6.0360   -0.7920    3.1180 o         1 MOL     -0.489102
     45 C15        -4.5430   -1.2970    0.0420 c3        1 MOL     -0.036439
     46 C16        -3.1500   -2.0030    0.1270 c         1 MOL      0.609086
     47 O7         -3.0030   -2.9620    0.9310 o         1 MOL     -0.706587
     48 O8         -2.2490   -1.5890   -0.5700 o         1 MOL     -0.706587
     49 H21        -6.9260   -0.5490    0.0770 hn        1 MOL      0.171339
     50 H22        -5.5310   -3.0180    0.8660 h1        1 MOL      0.048528
     51 H23        -4.3170   -0.2840    0.3600 hc        1 MOL      0.022688
     52 H24        -4.9290   -1.3590   -0.9760 hc        1 MOL      0.022688
     53 N5         -4.4820   -2.3860    3.1060 n         1 MOL     -0.258229
     54 C17        -4.1620   -2.2800    4.5640 c3        1 MOL     -0.160322
     55 C18        -3.2540   -1.1110    4.8260 c         1 MOL      0.647436
     56 O9         -3.4290   -0.3870    5.7960 o         1 MOL     -0.564265
     57 H25        -4.0100   -3.0320    2.4990 hn        1 MOL      0.198734
     58 H26        -3.5430   -3.1400    4.8130 h1        1 MOL      0.084582
     59 H27        -5.0630   -2.1970    5.1790 h1        1 MOL      0.084582
     60 N6         -2.3160   -0.8770    3.9120 n         1 MOL     -0.419273
     61 C19        -1.3870    0.2270    3.9110 c3        1 MOL      0.152214
     62 C20        -1.6030    1.1980    2.7680 c         1 MOL      0.423059
     63 O10        -2.0650    0.7570    1.7170 o         1 MOL     -0.392222
     64 C21         0.0710   -0.3010    3.8010 c3        1 MOL     -0.272945
     65 C22         0.4590   -0.7090    2.3890 c         1 MOL      0.584046
     66 N7          1.2130    0.0720    1.7310 n         1 MOL     -0.619133
     67 O11         0.1980   -1.8110    1.9780 o         1 MOL     -0.521710
     68 H28        -2.3410   -1.3790    3.0370 hn        1 MOL      0.203011
     69 H29        -1.4200    0.8180    4.8330 h1        1 MOL      0.052833
     70 H30         0.2740   -1.0530    4.5660 hc        1 MOL      0.074147
     71 H31         0.6960    0.5510    4.1010 hc        1 MOL      0.074147
     72 H32         1.4060    1.0040    2.0590 hn        1 MOL      0.342929
     73 H33         1.6200   -0.2120    0.8510 hn        1 MOL      0.342929
     74 N8         -1.1280    2.4390    2.9180 n         1 MOL     -0.382318
     75 C23        -0.9680    3.4470    1.8350 c3        1 MOL     -0.228675
     76 C24         0.5210    3.4560    1.3280 c         1 MOL      0.638931
     77 O12         1.4420    2.9560    1.9420 o         1 MOL     -0.558855
     78 H34        -0.7840    2.7170    3.8260 hn        1 MOL      0.289763
     79 H35        -1.2770    4.4290    2.2000 h1        1 MOL      0.159778
     80 H36        -1.5910    3.0150    1.0500 h1        1 MOL      0.159778
     81 N9          0.6910    3.8940    0.0690 n         1 MOL     -0.589739
     82 C25         1.9970    3.9570   -0.5990 c3        1 MOL      0.202662
     83 C26         2.6850    2.6410   -0.7900 c         1 MOL      0.491054
     84 O13         2.0040    1.5940   -0.8260 o         1 MOL     -0.510292
     85 C27         1.8830    4.6540   -1.9620 c3        1 MOL     -0.139495
     86 C28         1.6820    6.1850   -1.7970 ca        1 MOL      0.104313
     87 C29         0.4860    6.7430   -2.1520 ca        1 MOL     -0.225292
     88 C30         2.7560    7.0440   -1.3720 ca        1 MOL     -0.225292
     89 C31         0.3080    8.1670   -2.0990 ca        1 MOL     -0.208823
     90 C32         2.6150    8.4380   -1.2790 ca        1 MOL     -0.208823
     91 C33         1.3970    8.9460   -1.6900 ca        1 MOL      0.311578
     92 O14         1.2400   10.3130   -1.6980 oh        1 MOL     -0.473822
     93 H37        -0.1640    4.2410   -0.3500 hn        1 MOL      0.314894
     94 H38         2.5800    4.5970    0.0630 h1        1 MOL      0.034759
     95 H39         1.2140    4.0910   -2.6110 hc        1 MOL      0.071891
     96 H40         2.8590    4.5910   -2.4320 hc        1 MOL      0.071891
     97 H41        -0.2630    6.0800   -2.5510 ha        1 MOL      0.141523
     98 H42         3.6490    6.5150   -1.0940 ha        1 MOL      0.141523
     99 H43        -0.5630    8.5790   -2.5900 ha        1 MOL      0.161922
    100 H44         3.4750    8.9950   -0.9380 ha        1 MOL      0.161922
    101 H45         2.0580   10.7100   -1.3690 ho        1 MOL      0.349250
    102 N10         4.0500    2.6870   -0.8010 n         1 MOL     -0.440247
    103 C34         4.8990    1.4920   -1.0420 c3        1 MOL     -0.022111
    104 C35         6.0310    1.4270    0.0330 c         1 MOL      0.377117
    105 O15         6.3440    0.4120    0.6350 o         1 MOL     -0.430508
    106 C36         5.5010    1.4140   -2.4820 c3        1 MOL      0.033692
    107 C37         4.3570    1.4330   -3.5050 c3        1 MOL      0.031522
    108 C38         6.3180    0.1590   -2.6750 c3        1 MOL     -0.153301
    109 C39         4.7120    1.4390   -4.9540 c3        1 MOL     -0.279313
    110 H46         4.5150    3.5080   -0.4470 hn        1 MOL      0.205928
    111 H47         4.2900    0.5990   -0.9180 h1        1 MOL      0.127327
    112 H48         6.1670    2.2680   -2.5270 hc        1 MOL     -0.025342
    113 H49         3.7180    2.2960   -3.3180 hc        1 MOL      0.029254
    114 H50         3.7460    0.5410   -3.3200 hc        1 MOL      0.029254
    115 H51         7.1350    0.2030   -1.9580 hc        1 MOL      0.047480
    116 H52         5.6900   -0.7140   -2.4890 hc        1 MOL      0.047480
    117 H53         6.7050    0.0340   -3.6900 hc        1 MOL      0.047480
    118 H54         5.4100    0.6230   -5.1200 hc        1 MOL      0.076003
    119 H55         3.8370    1.2620   -5.5810 hc        1 MOL      0.076003
    120 H56         5.2170    2.3750   -5.2040 hc        1 MOL      0.076003
    121 N11         6.6090    2.5050    0.3940 n         1 MOL     -0.086273
    122 C40         7.5800    2.5570    1.4890 c3        1 MOL     -0.324456
    123 C41         8.7380    1.5340    1.5240 c         1 MOL      0.517452
    124 O16         9.0830    0.9370    2.4890 o         1 MOL     -0.474325
    125 C42         8.1420    4.0160    1.6630 c3        1 MOL      0.151342
    126 O17         8.6310    4.5750    0.5230 oh        1 MOL     -0.640980
    127 H57         6.4470    3.3410   -0.1380 hn        1 MOL      0.253343
    128 H58         6.9910    2.3330    2.3780 h1        1 MOL      0.152337
    129 H59         8.9070    4.0980    2.4300 h1        1 MOL      0.053453
    130 H60         7.3210    4.6220    2.0550 h1        1 MOL      0.053453
    131 H61         8.9450    5.4630    0.7030 ho        1 MOL      0.435913
    132 N12         9.3980    1.3550    0.3370 n         1 MOL     -0.247924
    133 C43        10.4550    0.3470    0.1580 c3        1 MOL      0.175224
    134 C44        10.0820   -1.0730    0.5920 c         1 MOL      0.424934
    135 O18        10.9450   -1.7610    1.1300 o         1 MOL     -0.496694
    136 C45        11.7700    0.9470    0.8060 c3        1 MOL     -0.277758
    137 H62         9.1700    2.0170   -0.4000 hn        1 MOL      0.203166
    138 H63        10.7300    0.2690   -0.8900 h1        1 MOL      0.036933
    139 H64        12.5850    0.3170    0.4580 hc        1 MOL      0.082377
    140 H65        11.9980    1.9690    0.5120 hc        1 MOL      0.082377
    141 H66        11.7900    0.9660    1.8980 hc        1 MOL      0.082377
    142 N13         8.7580   -1.4420    0.5960 n         1 MOL     -0.420401
    143 C46         8.1330   -2.7070    0.9200 c3        1 MOL      0.464356
    144 C47         7.1160   -3.1870   -0.2000 c         1 MOL      0.170424
    145 O19         6.8430   -2.4750   -1.1570 o         1 MOL     -0.393624
    146 C48         7.5880   -2.5750    2.3310 c3        1 MOL     -0.112961
    147 H67         8.1550   -0.7540    0.1660 hn        1 MOL      0.114377
    148 H68         8.8740   -3.5010    1.0620 h1        1 MOL     -0.053279
    149 H69         6.8160   -1.8070    2.3020 hc        1 MOL      0.031079
    150 H70         6.9830   -3.4630    2.5320 hc        1 MOL      0.031079
    151 H71         8.3410   -2.4210    3.1030 hc        1 MOL      0.031079
    152 N14         6.6390   -4.4330   -0.1390 n         1 MOL     -0.175815
    153 C49         5.9330   -5.1730   -1.2470 c3        1 MOL     -0.146907
    154 C50         6.5630   -5.4350   -2.5860 c         1 MOL      0.465076
    155 O20         6.5120   -6.5700   -3.0260 o         1 MOL     -0.490639
    156 C51         4.4510   -4.7220   -1.4080 c3        1 MOL     -0.153519
    157 C52         3.6270   -5.2980   -0.3080 c3        1 MOL      0.063202
    158 C53         2.2820   -4.5830   -0.2190 c         1 MOL      0.632819
    159 O21         1.5360   -4.4940   -1.2030 o         1 MOL     -0.769516
    160 O22         1.9030   -4.0920    0.8520 o         1 MOL     -0.769516
    161 H72         7.0200   -4.9470    0.6430 hn        1 MOL      0.237081
    162 H73         5.8460   -6.1700   -0.8340 h1        1 MOL      0.076526
    163 H74         4.0540   -5.1200   -2.3340 hc        1 MOL      0.106086
    164 H75         4.4780   -3.6290   -1.4380 hc        1 MOL      0.106086
    165 H76         4.0790   -5.3330    0.6820 hc        1 MOL     -0.002003
    166 H77         3.3990   -6.3060   -0.6400 hc        1 MOL     -0.002003
    167 N15         7.0910   -4.4190   -3.3170 n         1 MOL     -0.309340
    168 C54         7.4680   -4.7590   -4.7480 c3        1 MOL     -0.160047
    169 H78         6.6690   -5.3430   -5.2050 h1        1 MOL      0.092056
    170 H79         7.6130   -3.8400   -5.3140 h1        1 MOL      0.092056
    171 H80         8.3910   -5.3400   -4.7540 h1        1 MOL      0.092056
    172 H81         7.1690   -3.4820   -2.9630 hn        1 MOL      0.238873
    173 Ca1        -0.4430   -3.4160    0.0740 Ca        1 MOL      1.740512
    174 O23         0.8080   -1.1660   -1.0460 oh        1 MOL     -0.807789
    175 H82         0.3240   -0.4110   -1.3840 ho        1 MOL      0.404737
    176 H83         1.5150   -1.3080   -1.6830 ho        1 MOL      0.404737
    177 O24        -1.3690   -6.0290   -0.0130 oh        1 MOL     -0.807789
    178 H84        -1.6990   -6.4230    0.7900 ho        1 MOL      0.404737
    179 H85        -1.0650   -6.7710   -0.5360 ho        1 MOL      0.404737
    180 O25        -1.2700   -4.5750    2.4170 oh        1 MOL     -0.807789
    181 H86        -2.0510   -5.1320    2.3720 ho        1 MOL      0.404737
    182 H87        -1.1960   -4.3390    3.3450 ho        1 MOL      0.404737
    183 O26        -1.8430   -4.1220   -2.2180 oh        1 MOL     -0.807789
    184 H88        -1.6800   -3.8380   -3.1250 ho        1 MOL      0.404737
    185 H89        -2.6920   -4.5540   -2.2460 ho        1 MOL      0.404737
@<TRIPOS>BOND
     1    1    2 1   
     2    1    4 1   
     3    1    5 1   
     4    1    6 1   
     5    2    3 2   
     6    2    7 1   
     7    7    8 1   
     8    7   15 1   
     9    8    9 1   
    10    8   11 1   
    11    8   16 1   
    12    9   10 2   
    13    9   19 1   
    14   11   12 1   
    15   11   17 1   
    16   11   18 1   
    17   12   13 1   
    18   12   14 1   
    19   19   20 1   
    20   19   28 1   
    21   20   21 1   
    22   20   23 1   
    23   20   29 1   
    24   21   22 2   
    25   21   41 1   
    26   23   24 1   
    27   23   30 1   
    28   23   31 1   
    29   24   25 1   
    30   24   32 1   
    31   24   33 1   
    32   25   26 1   
    33   25   34 1   
    34   25   35 1   
    35   26   27 1   
    36   26   36 1   
    37   26   37 1   
    38   27   38 1   
    39   27   39 1   
    40   27   40 1   
    41   41   42 1   
    42   41   49 1   
    43   42   43 1   
    44   42   45 1   
    45   42   50 1   
    46   43   44 2   
    47   43   53 1   
    48   45   46 1   
    49   45   51 1   
    50   45   52 1   
    51   46   47 1   
    52   46   48 1   
    53   53   54 1   
    54   53   57 1   
    55   54   55 1   
    56   54   58 1   
    57   54   59 1   
    58   55   56 2   
    59   55   60 1   
    60   60   61 1   
    61   60   68 1   
    62   61   62 1   
    63   61   64 1   
    64   61   69 1   
    65   62   63 2   
    66   62   74 1   
    67   64   65 1   
    68   64   70 1   
    69   64   71 1   
    70   65   66 1   
    71   65   67 2   
    72   66   72 1   
    73   66   73 1   
    74   74   75 1   
    75   74   78 1   
    76   75   76 1   
    77   75   79 1   
    78   75   80 1   
    79   76   77 2   
    80   76   81 1   
    81   81   82 1   
    82   81   93 1   
    83   82   83 1   
    84   82   85 1   
    85   82   94 1   
    86   83   84 2   
    87   83  102 1   
    88   85   86 1   
    89   85   95 1   
    90   85   96 1   
    91   86   87 ar  
    92   86   88 ar  
    93   87   89 ar  
    94   87   97 1   
    95   88   90 ar  
    96   88   98 1   
    97   89   91 ar  
    98   89   99 1   
    99   90   91 ar  
   100   90  100 1   
   101   91   92 1   
   102   92  101 1   
   103  102  103 1   
   104  102  110 1   
   105  103  104 1   
   106  103  106 1   
   107  103  111 1   
   108  104  105 2   
   109  104  121 1   
   110  106  107 1   
   111  106  108 1   
   112  106  112 1   
   113  107  109 1   
   114  107  113 1   
   115  107  114 1   
   116  108  115 1   
   117  108  116 1   
   118  108  117 1   
   119  109  118 1   
   120  109  119 1   
   121  109  120 1   
   122  121  122 1   
   123  121  127 1   
   124  122  123 1   
   125  122  125 1   
   126  122  128 1   
   127  123  124 2   
   128  123  132 1   
   129  125  126 1   
   130  125  129 1   
   131  125  130 1   
   132  126  131 1   
   133  132  133 1   
   134  132  137 1   
   135  133  134 1   
   136  133  136 1   
   137  133  138 1   
   138  134  135 2   
   139  134  142 1   
   140  136  139 1   
   141  136  140 1   
   142  136  141 1   
   143  142  143 1   
   144  142  147 1   
   145  143  144 1   
   146  143  146 1   
   147  143  148 1   
   148  144  145 2   
   149  144  152 1   
   150  146  149 1   
   151  146  150 1   
   152  146  151 1   
   153  152  153 1   
   154  152  161 1   
   155  153  154 1   
   156  153  156 1   
   157  153  162 1   
   158  154  155 2   
   159  154  167 1   
   160  156  157 1   
   161  156  163 1   
   162  156  164 1   
   163  157  158 1   
   164  157  165 1   
   165  157  166 1   
   166  158  159 1   
   167  158  160 1   
   168  167  168 1   
   169  167  172 1   
   170  168  169 1   
   171  168  170 1   
   172  168  171 1   
   173  174  175 1   
   174  174  176 1   
   175  177  178 1   
   176  177  179 1   
   177  180  181 1   
   178  180  182 1   
   179  183  184 1   
   180  183  185 1   
@<TRIPOS>SUBSTRUCTURE
     1 MOL         1 TEMP              0 ****  ****    0 ROOT
