@<TRIPOS>MOLECULE
MOL
  192   187     1     0     0
SMALL
resp


@<TRIPOS>ATOM
      1 C1         11.0250   -5.3190    3.3810 c3        1 MOL     -0.457029
      2 C2         11.0590   -3.8810    2.8910 c         1 MOL      0.645383
      3 O1         11.5060   -2.9920    3.5790 o         1 MOL     -0.584603
      4 H1         10.6190   -5.9590    2.5980 hc        1 MOL      0.129797
      5 H2         12.0360   -5.6430    3.6280 hc        1 MOL      0.129797
      6 H3         10.3940   -5.3870    4.2670 hc        1 MOL      0.129797
      7 N1         10.5230   -3.6120    1.6410 n         1 MOL     -0.100850
      8 C3         10.5900   -2.4670    0.8860 c3        1 MOL     -0.474672
      9 C4          9.2840   -1.7370    0.6660 c         1 MOL      0.605402
     10 O2          8.2600   -2.3740    0.2940 o         1 MOL     -0.688543
     11 C5         11.2710   -2.6770   -0.4650 c3        1 MOL      0.087052
     12 C6         10.6190   -3.8260   -1.3210 c         1 MOL      0.767420
     13 O3          9.6330   -4.4950   -0.9100 o         1 MOL     -0.721653
     14 O4         11.1490   -4.0360   -2.4300 o         1 MOL     -0.721653
     15 H4         10.1590   -4.4640    1.2300 hn        1 MOL      0.058630
     16 H5         11.1550   -1.7130    1.4390 h1        1 MOL      0.115100
     17 H6         12.2230   -3.1700   -0.2800 hc        1 MOL      0.022119
     18 H7         11.4710   -1.7710   -1.0400 hc        1 MOL      0.022119
     19 N2          9.2770   -0.4270    0.8330 n         1 MOL     -0.327589
     20 C7          8.0810    0.4190    0.8030 c3        1 MOL      0.086273
     21 C8          7.4140    0.7370   -0.5550 c         1 MOL      0.539764
     22 O5          7.9070    1.5620   -1.3010 o         1 MOL     -0.528033
     23 C9          8.2360    1.7350    1.5320 c3        1 MOL     -0.239559
     24 C10         8.7720    1.6530    2.9970 c3        1 MOL      0.123392
     25 C11         9.2920    3.0520    3.4070 c3        1 MOL      0.020244
     26 C12         9.9840    2.9800    4.7570 c3        1 MOL     -0.126330
     27 N3         10.5810    4.2140    5.2870 n4        1 MOL     -0.190321
     28 H8         10.1350    0.0230    1.1250 hn        1 MOL      0.306959
     29 H9          7.3690   -0.1180    1.4290 h1        1 MOL      0.044308
     30 H10         7.3020    2.2970    1.5340 hc        1 MOL      0.058068
     31 H11         9.0040    2.2680    0.9740 hc        1 MOL      0.058068
     32 H12         9.5910    0.9400    3.1170 hc        1 MOL     -0.016822
     33 H13         7.9180    1.3390    3.5960 hc        1 MOL     -0.016822
     34 H14         8.4130    3.6820    3.5130 hc        1 MOL      0.043482
     35 H15         9.9700    3.3870    2.6240 hc        1 MOL      0.043482
     36 H16        10.8090    2.3280    4.4740 hx        1 MOL      0.109862
     37 H17         9.2770    2.6540    5.5190 hx        1 MOL      0.109862
     38 H18         9.9020    4.9460    5.4410 hn        1 MOL      0.255580
     39 H19        10.9890    3.9310    6.1710 hn        1 MOL      0.255580
     40 H20        11.3480    4.5880    4.7560 hn        1 MOL      0.255580
     41 N4          6.3260    0.0880   -0.8410 n         1 MOL     -0.327258
     42 C13         5.5530    0.1940   -2.1130 c3        1 MOL      0.075231
     43 C14         4.1050   -0.2780   -1.9560 c         1 MOL      0.431327
     44 O6          3.8350   -1.1660   -1.1690 o         1 MOL     -0.574675
     45 C15         6.2090   -0.5090   -3.3200 c3        1 MOL     -0.209258
     46 C16         6.5630   -1.9610   -2.9370 c         1 MOL      0.703377
     47 O7          5.8150   -2.8770   -3.3240 o         1 MOL     -0.695882
     48 O8          7.6770   -2.2660   -2.4410 o         1 MOL     -0.695882
     49 H21         5.8310   -0.3420   -0.0660 hn        1 MOL      0.172069
     50 H22         5.5360    1.2480   -2.4010 h1        1 MOL      0.069421
     51 H23         7.1180    0.0630   -3.5410 hc        1 MOL      0.087155
     52 H24         5.5560   -0.4010   -4.1830 hc        1 MOL      0.087155
     53 N5          3.1190    0.2300   -2.7370 n         1 MOL     -0.393322
     54 C17         3.1560    1.4190   -3.6680 c3        1 MOL     -0.121716
     55 C18         2.9070    2.7110   -2.9470 c         1 MOL      0.693498
     56 O9          3.1320    2.7950   -1.7330 o         1 MOL     -0.546562
     57 H25         2.2090    0.0060   -2.3730 hn        1 MOL      0.327919
     58 H26         2.4080    1.3150   -4.4560 h1        1 MOL      0.096818
     59 H27         4.1210    1.5230   -4.1720 h1        1 MOL      0.096818
     60 N6          2.5030    3.7800   -3.6470 n         1 MOL     -0.524828
     61 C19         2.4190    5.0610   -3.0390 c3        1 MOL      0.079891
     62 C20         1.3850    5.0890   -1.9020 c         1 MOL      0.477659
     63 O10         0.2550    4.5750   -2.0850 o         1 MOL     -0.522945
     64 C21         2.1980    6.1540   -4.1310 c3        1 MOL     -0.146051
     65 C22         2.0740    7.4680   -3.4860 c         1 MOL      0.691706
     66 O11         1.1980    8.2060   -3.9720 o         1 MOL     -0.662784
     67 O12         2.9130    7.8950   -2.6320 o         1 MOL     -0.662784
     68 H28         2.2450    3.7370   -4.6230 hn        1 MOL      0.290538
     69 H29         3.3590    5.3040   -2.5490 h1        1 MOL      0.010400
     70 H30         1.2860    5.9420   -4.6950 hc        1 MOL      0.057712
     71 H31         3.0590    6.1370   -4.7970 hc        1 MOL      0.057712
     72 N7          1.7130    5.7100   -0.7520 n         1 MOL     -0.261118
     73 C23         0.7990    5.8570    0.3810 c3        1 MOL     -0.210413
     74 C24         0.6200    4.5460    1.2030 c         1 MOL      0.484423
     75 O13        -0.0630    4.5740    2.1860 o         1 MOL     -0.558260
     76 H32         2.5990    6.1920   -0.7790 hn        1 MOL      0.225628
     77 H33        -0.1740    6.0710   -0.0550 h1        1 MOL      0.144191
     78 H34         1.0790    6.7000    1.0020 h1        1 MOL      0.144191
     79 N8          1.1680    3.4140    0.7630 n         1 MOL     -0.192107
     80 C25         1.0720    2.0930    1.3860 c3        1 MOL      0.088059
     81 C26         0.0710    1.1440    0.7690 c         1 MOL      0.684094
     82 O14        -0.2830    1.4430   -0.4060 o         1 MOL     -0.541274
     83 C27         2.4480    1.5130    1.2720 c3        1 MOL      0.288400
     84 C28         3.6070    2.3410    1.8140 c3        1 MOL     -0.393736
     85 O15         2.4940    0.5860    2.3260 oh        1 MOL     -0.611978
     86 H35         1.5170    3.4830   -0.1830 hn        1 MOL      0.063874
     87 H36         0.8070    2.3150    2.4230 h1        1 MOL      0.054607
     88 H37         2.5330    1.1220    0.2510 h1        1 MOL      0.062974
     89 H38         3.3880    0.2490    2.4230 ho        1 MOL      0.354617
     90 H39         4.4700    1.6700    1.8370 hc        1 MOL      0.106992
     91 H40         3.7950    3.1850    1.1490 hc        1 MOL      0.106992
     92 H41         3.3790    2.7140    2.8210 hc        1 MOL      0.106992
     93 N9         -0.3300   -0.0130    1.3030 n         1 MOL     -0.651706
     94 C29        -1.1370   -1.0390    0.6260 c3        1 MOL     -0.051033
     95 C30        -2.5300   -0.5860    0.3120 c         1 MOL      0.477526
     96 O16        -3.3130   -1.3800   -0.1690 o         1 MOL     -0.559221
     97 C31        -1.1160   -2.3620    1.4220 c3        1 MOL      0.130769
     98 C32        -1.3610   -2.1670    2.8770 c3        1 MOL      0.062964
     99 C33         0.2930   -2.9710    1.1400 c3        1 MOL      0.140657
    100 C34        -1.8470   -3.3940    3.5200 c3        1 MOL     -0.112050
    101 H42         0.1250   -0.2840    2.1650 hn        1 MOL      0.293215
    102 H43        -0.8090   -1.2830   -0.3850 h1        1 MOL      0.124887
    103 H44        -1.8120   -3.0620    0.9540 hc        1 MOL      0.021988
    104 H45        -2.2040   -1.4820    3.0080 hc        1 MOL      0.016167
    105 H46        -0.5600   -1.6320    3.3910 hc        1 MOL      0.016167
    106 H47         0.3480   -3.9690    1.5560 hc        1 MOL     -0.059069
    107 H48         0.4590   -3.1030    0.0770 hc        1 MOL     -0.059069
    108 H49         1.1290   -2.4130    1.5760 hc        1 MOL     -0.059069
    109 H50        -0.9870   -3.8240    4.0350 hc        1 MOL      0.021462
    110 H51        -2.5420   -3.1090    4.3130 hc        1 MOL      0.021462
    111 H52        -2.2230   -4.1630    2.8470 hc        1 MOL      0.021462
    112 N10        -2.8490    0.6700    0.5760 n         1 MOL     -0.260348
    113 C35        -4.1390    1.3340    0.3770 c3        1 MOL      0.017849
    114 C36        -4.9930    1.3340    1.6520 c         1 MOL      0.568953
    115 O17        -4.4700    1.5760    2.7700 o         1 MOL     -0.555459
    116 C37        -3.9240    2.8370    0.0800 c3        1 MOL      0.310010
    117 C38        -3.1150    3.2030   -1.2300 c3        1 MOL     -0.314536
    118 O18        -5.1500    3.4690   -0.0300 oh        1 MOL     -0.665979
    119 H53        -2.0880    1.2500    0.9240 hn        1 MOL      0.141607
    120 H54        -4.6960    0.8550   -0.4260 h1        1 MOL      0.093984
    121 H55        -3.5610    3.2640    1.0130 h1        1 MOL      0.046204
    122 H56        -4.9810    4.3750   -0.3310 ho        1 MOL      0.421400
    123 H57        -3.8040    2.9770   -2.0410 hc        1 MOL      0.094168
    124 H58        -2.8920    4.2620   -1.3210 hc        1 MOL      0.094168
    125 H59        -2.2730    2.5290   -1.3510 hc        1 MOL      0.094168
    126 N11        -6.2720    1.1640    1.5200 n         1 MOL     -0.464507
    127 C39        -7.2380    1.4630    2.6220 c3        1 MOL     -0.053166
    128 C40        -8.5540    0.7090    2.5450 c         1 MOL      0.566567
    129 O19        -9.1120    0.5350    3.6360 o         1 MOL     -0.551141
    130 C41        -7.6080    2.9730    2.6160 c3        1 MOL      0.378949
    131 C42        -8.9000    3.4170    3.2820 c3        1 MOL     -0.480424
    132 O20        -7.6440    3.3670    1.2250 oh        1 MOL     -0.639074
    133 H60        -6.7100    0.8840    0.6560 hn        1 MOL      0.263840
    134 H61        -6.8250    1.2180    3.6020 h1        1 MOL      0.106105
    135 H62        -6.8380    3.6170    3.0410 h1        1 MOL      0.025419
    136 H63        -6.8090    3.1030    0.8400 ho        1 MOL      0.380612
    137 H64        -8.8940    3.0220    4.2960 hc        1 MOL      0.135177
    138 H65        -8.9460    4.5110    3.3480 hc        1 MOL      0.135177
    139 H66        -9.7210    3.1090    2.6330 hc        1 MOL      0.135177
    140 N12        -9.1030    0.4410    1.3610 n         1 MOL     -0.407790
    141 C43       -10.3980   -0.3370    1.2150 c3        1 MOL     -0.088480
    142 C44       -10.2680   -1.3910    0.0730 c         1 MOL      0.581461
    143 O21        -9.5830   -1.1120   -0.9740 o         1 MOL     -0.537807
    144 C45       -11.6100    0.5350    1.1570 c3        1 MOL     -0.035779
    145 C46       -11.7690    1.4390   -0.1040 c3        1 MOL     -0.083611
    146 C47       -13.0870    2.1730   -0.2540 c3        1 MOL     -0.031153
    147 C48       -12.9150    3.0110   -1.5970 c3        1 MOL      0.059499
    148 N13       -14.0620    3.9030   -1.7620 n4        1 MOL     -0.333126
    149 H67        -8.6550    0.8050    0.5330 hn        1 MOL      0.261981
    150 H68       -10.4480   -0.9200    2.1300 h1        1 MOL      0.110631
    151 H69       -11.5410    1.1780    2.0380 hc        1 MOL      0.056031
    152 H70       -12.5220   -0.0470    1.3250 hc        1 MOL      0.056031
    153 H71       -11.8720    0.7610   -0.9470 hc        1 MOL      0.054166
    154 H72       -10.9800    2.1650   -0.2440 hc        1 MOL      0.054166
    155 H73       -13.2920    2.7420    0.6530 hc        1 MOL      0.035008
    156 H74       -13.8440    1.4040   -0.4250 hc        1 MOL      0.035008
    157 H75       -12.8480    2.3030   -2.4260 hx        1 MOL      0.079428
    158 H76       -12.0320    3.6480   -1.5840 hx        1 MOL      0.079428
    159 H77       -14.1420    4.1640   -2.7340 hn        1 MOL      0.262906
    160 H78       -14.9670    3.4880   -1.5560 hn        1 MOL      0.262906
    161 H79       -13.7920    4.6180   -1.1050 hn        1 MOL      0.262906
    162 N14       -10.9550   -2.4820    0.2060 n         1 MOL     -0.569993
    163 C49       -11.0430   -3.5150   -0.8670 c3        1 MOL      0.413611
    164 C50        -9.6720   -3.9760   -1.4800 c         1 MOL      0.252900
    165 O22        -9.5420   -4.0370   -2.7270 o         1 MOL     -0.506203
    166 C51       -11.9000   -4.6720   -0.3160 c3        1 MOL     -0.318660
    167 C52       -11.9080   -5.8810   -1.2360 c3        1 MOL     -0.097435
    168 C53       -12.9270   -6.8970   -0.7680 c         1 MOL      0.665317
    169 O23       -12.8770   -7.3520    0.3860 o         1 MOL     -0.641906
    170 O24       -13.6950   -7.4360   -1.6450 o         1 MOL     -0.641906
    171 H80       -11.6570   -2.5230    0.9280 hn        1 MOL      0.299358
    172 H81       -11.5880   -3.0820   -1.6970 h1        1 MOL      0.009781
    173 H82       -12.8980   -4.3670    0.0100 hc        1 MOL      0.090972
    174 H83       -11.4060   -5.0510    0.5810 hc        1 MOL      0.090972
    175 H84       -10.9250   -6.3440   -1.3250 hc        1 MOL      0.048187
    176 H85       -12.1500   -5.5180   -2.2380 hc        1 MOL      0.048187
    177 N15        -8.5780   -4.2830   -0.7510 n         1 MOL     -0.274451
    178 C54        -8.2440   -4.4650    0.6220 c3        1 MOL     -0.016753
    179 H86        -7.8410   -3.5350    1.0240 h1        1 MOL      0.046705
    180 H87        -9.1370   -4.7460    1.1800 h1        1 MOL      0.046705
    181 H88        -7.4960   -5.2530    0.7130 h1        1 MOL      0.046705
    182 H89        -7.7290   -4.2140   -1.3020 hn        1 MOL      0.292859
    183 Ca1         7.0740   -4.3900   -1.1580 Ca        1 MOL      1.831632
    184 O25         7.7110   -5.4510   -3.4230 oh        1 MOL     -0.954502
    185 H90         7.1990   -5.9400   -4.0680 ho        1 MOL      0.465409
    186 H91         8.5070   -5.2050   -3.8970 ho        1 MOL      0.465409
    187 O26         5.0270   -5.3880   -2.0700 oh        1 MOL     -0.954502
    188 H92         4.7670   -5.4880   -2.9840 ho        1 MOL      0.465409
    189 H93         4.2310   -5.0820   -1.6270 ho        1 MOL      0.465409
    190 O27         5.3200   -2.7030    0.1940 oh        1 MOL     -0.954502
    191 H94         4.6020   -2.2640   -0.2560 ho        1 MOL      0.465409
    192 H95         5.2570   -2.3890    1.0990 ho        1 MOL      0.465409
@<TRIPOS>BOND
     1    1    2 1   
     2    1    4 1   
     3    1    5 1   
     4    1    6 1   
     5    2    3 2   
     6    2    7 1   
     7    7    8 1   
     8    7   15 1   
     9    8    9 1   
    10    8   11 1   
    11    8   16 1   
    12    9   10 2   
    13    9   19 1   
    14   11   12 1   
    15   11   17 1   
    16   11   18 1   
    17   12   13 1   
    18   12   14 1   
    19   19   20 1   
    20   19   28 1   
    21   20   21 1   
    22   20   23 1   
    23   20   29 1   
    24   21   22 2   
    25   21   41 1   
    26   23   24 1   
    27   23   30 1   
    28   23   31 1   
    29   24   25 1   
    30   24   32 1   
    31   24   33 1   
    32   25   26 1   
    33   25   34 1   
    34   25   35 1   
    35   26   27 1   
    36   26   36 1   
    37   26   37 1   
    38   27   38 1   
    39   27   39 1   
    40   27   40 1   
    41   41   42 1   
    42   41   49 1   
    43   42   43 1   
    44   42   45 1   
    45   42   50 1   
    46   43   44 2   
    47   43   53 1   
    48   45   46 1   
    49   45   51 1   
    50   45   52 1   
    51   46   47 1   
    52   46   48 1   
    53   53   54 1   
    54   53   57 1   
    55   54   55 1   
    56   54   58 1   
    57   54   59 1   
    58   55   56 2   
    59   55   60 1   
    60   60   61 1   
    61   60   68 1   
    62   61   62 1   
    63   61   64 1   
    64   61   69 1   
    65   62   63 2   
    66   62   72 1   
    67   64   65 1   
    68   64   70 1   
    69   64   71 1   
    70   65   66 1   
    71   65   67 1   
    72   72   73 1   
    73   72   76 1   
    74   73   74 1   
    75   73   77 1   
    76   73   78 1   
    77   74   75 2   
    78   74   79 1   
    79   79   80 1   
    80   79   86 1   
    81   80   81 1   
    82   80   83 1   
    83   80   87 1   
    84   81   82 2   
    85   81   93 1   
    86   83   84 1   
    87   83   85 1   
    88   83   88 1   
    89   84   90 1   
    90   84   91 1   
    91   84   92 1   
    92   85   89 1   
    93   93   94 1   
    94   93  101 1   
    95   94   95 1   
    96   94   97 1   
    97   94  102 1   
    98   95   96 2   
    99   95  112 1   
   100   97   98 1   
   101   97   99 1   
   102   97  103 1   
   103   98  100 1   
   104   98  104 1   
   105   98  105 1   
   106   99  106 1   
   107   99  107 1   
   108   99  108 1   
   109  100  109 1   
   110  100  110 1   
   111  100  111 1   
   112  112  113 1   
   113  112  119 1   
   114  113  114 1   
   115  113  116 1   
   116  113  120 1   
   117  114  115 2   
   118  114  126 1   
   119  116  117 1   
   120  116  118 1   
   121  116  121 1   
   122  117  123 1   
   123  117  124 1   
   124  117  125 1   
   125  118  122 1   
   126  126  127 1   
   127  126  133 1   
   128  127  128 1   
   129  127  130 1   
   130  127  134 1   
   131  128  129 2   
   132  128  140 1   
   133  130  131 1   
   134  130  132 1   
   135  130  135 1   
   136  131  137 1   
   137  131  138 1   
   138  131  139 1   
   139  132  136 1   
   140  140  141 1   
   141  140  149 1   
   142  141  142 1   
   143  141  144 1   
   144  141  150 1   
   145  142  143 2   
   146  142  162 1   
   147  144  145 1   
   148  144  151 1   
   149  144  152 1   
   150  145  146 1   
   151  145  153 1   
   152  145  154 1   
   153  146  147 1   
   154  146  155 1   
   155  146  156 1   
   156  147  148 1   
   157  147  157 1   
   158  147  158 1   
   159  148  159 1   
   160  148  160 1   
   161  148  161 1   
   162  162  163 1   
   163  162  171 1   
   164  163  164 1   
   165  163  166 1   
   166  163  172 1   
   167  164  165 2   
   168  164  177 1   
   169  166  167 1   
   170  166  173 1   
   171  166  174 1   
   172  167  168 1   
   173  167  175 1   
   174  167  176 1   
   175  168  169 1   
   176  168  170 1   
   177  177  178 1   
   178  177  182 1   
   179  178  179 1   
   180  178  180 1   
   181  178  181 1   
   182  184  185 1   
   183  184  186 1   
   184  187  188 1   
   185  187  189 1   
   186  190  191 1   
   187  190  192 1   
@<TRIPOS>SUBSTRUCTURE
     1 MOL         1 TEMP              0 ****  ****    0 ROOT
