@<TRIPOS>MOLECULE
MOL
  195   189     1     0     0
SMALL
resp


@<TRIPOS>ATOM
      1 C1         -1.9110   -5.5680   -3.3200 c3        1 MOL     -0.472534
      2 C2         -2.5220   -4.9490   -2.0400 c         1 MOL      0.826937
      3 O1         -1.9020   -4.2310   -1.2610 o         1 MOL     -0.807836
      4 H1         -0.9040   -5.1770   -3.4660 hc        1 MOL      0.115114
      5 H2         -1.8680   -6.6520   -3.2150 hc        1 MOL      0.115114
      6 H3         -2.5290   -5.3090   -4.1800 hc        1 MOL      0.115114
      7 N1         -3.8210   -5.2540   -1.8740 n         1 MOL     -0.566694
      8 C3         -4.7430   -4.7270   -0.8860 c3        1 MOL      0.329899
      9 C4         -4.6540   -3.1360   -0.9100 c         1 MOL      0.017113
     10 O2         -4.4790   -2.4260    0.0770 o         1 MOL     -0.290749
     11 C5         -4.6560   -5.2770    0.5850 c3        1 MOL     -0.392807
     12 C6         -3.3230   -5.3350    1.3770 c         1 MOL      0.982540
     13 O3         -2.6220   -4.3340    1.6460 o         1 MOL     -0.795130
     14 O4         -2.8710   -6.4630    1.6080 o         1 MOL     -0.795130
     15 H4         -4.2000   -5.8670   -2.5750 hn        1 MOL      0.287012
     16 H5         -5.7460   -4.9830   -1.2180 h1        1 MOL      0.075612
     17 H6         -5.0240   -6.2850    0.4290 hc        1 MOL      0.087468
     18 H7         -5.3420   -4.7630    1.2620 hc        1 MOL      0.087468
     19 N2         -4.6580   -2.6720   -2.1950 n         1 MOL     -0.217453
     20 C7         -4.8890   -1.2690   -2.6980 c3        1 MOL     -0.107233
     21 C8         -6.2650   -0.8030   -2.2050 c         1 MOL      0.532143
     22 O5         -7.1490   -0.6630   -3.0200 o         1 MOL     -0.560927
     23 C9         -3.6840   -0.3710   -2.3700 c3        1 MOL      0.046717
     24 C10        -3.7490    1.1620   -2.9900 c3        1 MOL      0.046270
     25 C11        -2.3670   -0.9900   -2.8430 c3        1 MOL     -0.077906
     26 C12        -3.9750    1.1660   -4.5330 c3        1 MOL     -0.230506
     27 H8         -4.4910   -3.3690   -2.9060 hn        1 MOL      0.213539
     28 H9         -4.8990   -1.3260   -3.7860 h1        1 MOL      0.073001
     29 H10        -3.5090   -0.2060   -1.3150 hc        1 MOL     -0.033539
     30 H11        -2.7840    1.6330   -2.7770 hc        1 MOL      0.024272
     31 H12        -4.5500    1.6770   -2.4730 hc        1 MOL      0.024272
     32 H13        -1.5970   -0.2330   -2.6730 hc        1 MOL      0.037720
     33 H14        -2.1010   -1.8270   -2.1920 hc        1 MOL      0.037720
     34 H15        -2.2780   -1.3190   -3.8800 hc        1 MOL      0.037720
     35 H16        -4.0620    2.2380   -4.6790 hc        1 MOL      0.046293
     36 H17        -3.1090    0.8570   -5.1370 hc        1 MOL      0.046293
     37 H18        -4.8950    0.6790   -4.8620 hc        1 MOL      0.046293
     38 N3         -6.3540   -0.5520   -0.8800 n         1 MOL     -0.279166
     39 C13        -7.6970   -0.1830   -0.3060 c3        1 MOL      0.027548
     40 C14        -7.8990    1.3550   -0.2240 c         1 MOL      0.532507
     41 O6         -8.9320    1.8190   -0.7410 o         1 MOL     -0.579843
     42 C15        -7.9280   -0.9710    1.0350 c3        1 MOL      0.023289
     43 C16        -7.9030   -2.5010    0.9570 c         1 MOL      0.649792
     44 O7         -7.9090   -3.0790   -0.1330 o         1 MOL     -0.703532
     45 O8         -7.9160   -3.0170    2.0850 o         1 MOL     -0.703532
     46 H19        -5.6070   -0.9410   -0.3140 hn        1 MOL      0.306141
     47 H20        -8.3800   -0.5430   -1.0760 h1        1 MOL      0.056928
     48 H21        -8.9040   -0.6600    1.3970 hc        1 MOL     -0.026656
     49 H22        -7.1770   -0.6450    1.7540 hc        1 MOL     -0.026656
     50 N4         -7.0370    2.2230    0.3920 n         1 MOL     -0.553724
     51 C17        -5.8580    1.9180    1.1620 c3        1 MOL      0.043798
     52 C18        -6.1730    1.7430    2.7170 c         1 MOL      0.735499
     53 O9         -7.3070    1.6490    3.1990 o         1 MOL     -0.576929
     54 H23        -7.4040    3.1620    0.5150 hn        1 MOL      0.319172
     55 H24        -5.0920    2.6890    1.0180 h1        1 MOL      0.014981
     56 H25        -5.4110    0.9660    0.8880 h1        1 MOL      0.014981
     57 N5         -5.1890    1.8860    3.6010 n         1 MOL     -0.685660
     58 C19        -3.7770    2.2340    3.4510 c3        1 MOL      0.698210
     59 C20        -2.8070    1.0690    3.2340 c         1 MOL      0.421051
     60 O10        -3.0540    0.0410    3.7710 o         1 MOL     -0.506414
     61 C21        -3.2680    3.0450    4.6730 c3        1 MOL     -0.491632
     62 C22        -4.1480    4.2200    5.0090 c         1 MOL      0.805064
     63 O11        -3.9810    4.6380    6.2170 o         1 MOL     -0.760961
     64 O12        -4.9220    4.7330    4.2330 o         1 MOL     -0.760961
     65 H26        -5.4130    1.6910    4.5680 hn        1 MOL      0.315815
     66 H27        -3.7230    2.9020    2.5910 h1        1 MOL     -0.158804
     67 H28        -2.2470    3.4210    4.5990 hc        1 MOL      0.091763
     68 H29        -3.3310    2.3060    5.4660 hc        1 MOL      0.091763
     69 N6         -1.6020    1.2150    2.6440 n         1 MOL     -0.717782
     70 C23        -1.1180    2.4110    1.9430 c3        1 MOL     -0.051125
     71 C24        -1.7550    2.7590    0.5840 c         1 MOL      0.790545
     72 O13        -2.8310    2.3950    0.2370 o         1 MOL     -0.582464
     73 H30        -1.0260    0.3970    2.5280 hn        1 MOL      0.535677
     74 H31        -0.0530    2.2990    1.7380 h1        1 MOL      0.057106
     75 H32        -1.2720    3.2670    2.5910 h1        1 MOL      0.057106
     76 N7         -1.1380    3.6290   -0.2240 n         1 MOL     -0.796655
     77 C25        -1.5750    4.2880   -1.4340 c3        1 MOL      0.683701
     78 C26        -0.6500    4.0250   -2.6230 c         1 MOL      0.173195
     79 O14        -0.5400    4.7750   -3.5650 o         1 MOL     -0.534941
     80 C27        -1.8900    5.7400   -1.2970 c3        1 MOL     -0.176871
     81 C28        -2.9760    6.0600   -0.2390 c3        1 MOL     -0.120892
     82 C29        -3.4500    7.4790   -0.2200 c         1 MOL      0.673960
     83 N8         -4.3210    7.9170    0.6340 n         1 MOL     -0.823519
     84 O15        -2.9930    8.2990   -1.0260 o         1 MOL     -0.606908
     85 H33        -0.3010    3.9810    0.2280 hn        1 MOL      0.270056
     86 H34        -2.5270    3.8680   -1.7590 h1        1 MOL     -0.035232
     87 H35        -2.2200    6.1720   -2.2460 hc        1 MOL      0.030405
     88 H36        -0.9080    6.1460   -1.0480 hc        1 MOL      0.030405
     89 H37        -2.5900    5.8270    0.7490 hc        1 MOL      0.077207
     90 H38        -3.7500    5.3490   -0.5320 hc        1 MOL      0.077207
     91 H39        -4.6710    7.2770    1.3210 hn        1 MOL      0.384457
     92 H40        -4.5020    8.9130    0.6770 hn        1 MOL      0.384457
     93 N9          0.0590    2.9200   -2.6040 n         1 MOL     -0.075469
     94 C30         1.2710    2.6960   -3.4810 c3        1 MOL      0.201831
     95 C31         2.5970    2.7690   -2.6940 c         1 MOL      0.284465
     96 O16         2.6500    2.3520   -1.5200 o         1 MOL     -0.447277
     97 C32         1.1510    1.3460   -4.2440 c3        1 MOL      0.258658
     98 C33         2.2330    1.0630   -5.3280 c3        1 MOL     -0.223153
     99 C34        -0.1710    1.2110   -4.9570 c3        1 MOL     -0.223153
    100 H41         0.0070    2.3530   -1.7660 hn        1 MOL      0.145955
    101 H42         1.2610    3.4650   -4.2500 h1        1 MOL     -0.020611
    102 H43         1.2410    0.5710   -3.4810 hc        1 MOL     -0.067256
    103 H44         2.1460    0.0110   -5.6100 hc        1 MOL      0.036441
    104 H45         2.0350    1.7040   -6.1880 hc        1 MOL      0.036441
    105 H46         3.2510    1.3550   -5.0680 hc        1 MOL      0.036441
    106 H47        -1.0580    1.5110   -4.3920 hc        1 MOL      0.036441
    107 H48        -0.1460    1.6750   -5.9340 hc        1 MOL      0.036441
    108 H49        -0.2050    0.1460   -5.1670 hc        1 MOL      0.036441
    109 N10         3.6090    3.3460   -3.3130 n         1 MOL     -0.314466
    110 C35         4.8150    3.9590   -2.6140 c3        1 MOL      0.046616
    111 C36         5.7570    3.0600   -1.8260 c         1 MOL      0.391405
    112 O17         7.0300    3.0570   -2.0350 o         1 MOL     -0.559752
    113 C37         4.3450    5.1570   -1.7760 c3        1 MOL     -0.421996
    114 C38         5.4940    5.8180   -1.1030 c         1 MOL      0.759605
    115 N11         6.3810    6.4530   -1.8170 n         1 MOL     -0.859070
    116 O18         5.6630    5.7650    0.1030 o         1 MOL     -0.559799
    117 H50         3.4510    3.5930   -4.2810 hn        1 MOL      0.291386
    118 H51         5.3910    4.3800   -3.4410 h1        1 MOL      0.058128
    119 H52         3.6890    4.8310   -0.9780 hc        1 MOL      0.141272
    120 H53         3.9150    5.9010   -2.4410 hc        1 MOL      0.141272
    121 H54         6.2050    6.6140   -2.7970 hn        1 MOL      0.383795
    122 H55         7.3050    6.4380   -1.4060 hn        1 MOL      0.383795
    123 N12         5.2800    2.1480   -0.9730 n         1 MOL     -0.235577
    124 C39         6.0490    1.4860    0.1110 c3        1 MOL      0.112675
    125 C40         5.4540    0.0650    0.2920 c         1 MOL      0.330121
    126 O19         4.2170   -0.1290    0.2480 o         1 MOL     -0.444473
    127 C41         6.0420    2.4200    1.3740 c3        1 MOL     -0.172880
    128 C42         6.9120    1.8900    2.5500 ca        1 MOL     -0.063050
    129 C43         6.3750    1.3390    3.7740 ca        1 MOL     -0.037063
    130 C44         8.3200    1.7390    2.3440 ca        1 MOL     -0.037063
    131 C45         7.2260    0.7750    4.6960 ca        1 MOL     -0.402245
    132 C46         9.2010    1.2440    3.3600 ca        1 MOL     -0.402245
    133 C47         8.5960    0.6950    4.5380 ca        1 MOL      0.511962
    134 O20         9.3740    0.1100    5.4840 oh        1 MOL     -0.616461
    135 H56         4.2710    2.0900   -0.9120 hn        1 MOL      0.204747
    136 H57         7.0570    1.3230   -0.2650 h1        1 MOL      0.024538
    137 H58         5.0290    2.6380    1.6990 hc        1 MOL      0.109770
    138 H59         6.4120    3.4110    1.1110 hc        1 MOL      0.109770
    139 H60         5.3160    1.1090    3.8480 ha        1 MOL      0.113262
    140 H61         8.7940    2.0160    1.4130 ha        1 MOL      0.113262
    141 H62         6.8350    0.2050    5.5250 ha        1 MOL      0.170663
    142 H63        10.2770    1.1920    3.3910 ha        1 MOL      0.170663
    143 H64         8.9700   -0.1440    6.3190 ho        1 MOL      0.436549
    144 N13         6.3540   -0.8840    0.4630 n         1 MOL     -0.210099
    145 C48         6.1310   -2.2960    0.8210 c3        1 MOL     -0.163249
    146 C49         5.3010   -3.1910   -0.2550 c         1 MOL      0.382080
    147 O21         4.9890   -4.3550    0.0090 o         1 MOL     -0.457024
    148 C50         5.3480   -2.2850    2.1740 c3        1 MOL      0.119303
    149 C51         5.4600   -3.5890    3.0190 c3        1 MOL     -0.081131
    150 C52         4.8730   -3.3960    4.4680 c         1 MOL      0.616131
    151 O22         5.6180   -3.1730    5.4580 o         1 MOL     -0.680532
    152 O23         3.6180   -3.5030    4.5090 o         1 MOL     -0.680532
    153 H65         7.3230   -0.6060    0.4140 hn        1 MOL      0.214018
    154 H66         7.1460   -2.6170    1.0130 h1        1 MOL      0.108848
    155 H67         4.2960   -2.0820    1.9910 hc        1 MOL      0.031135
    156 H68         5.8370   -1.5540    2.8290 hc        1 MOL      0.031135
    157 H69         6.5280   -3.7890    3.1040 hc        1 MOL     -0.029094
    158 H70         4.9660   -4.4480    2.5870 hc        1 MOL     -0.029094
    159 N14         5.0370   -2.6090   -1.4360 n         1 MOL     -0.280503
    160 C53         4.1560   -3.0430   -2.4340 c3        1 MOL      0.062764
    161 C54         4.9410   -3.4590   -3.7400 c         1 MOL      0.525856
    162 O24         4.3080   -4.0660   -4.5990 o         1 MOL     -0.528089
    163 C55         3.1300   -1.9720   -2.7600 c3        1 MOL      0.262636
    164 C56         1.7860   -2.5560   -2.9860 c3        1 MOL      0.160566
    165 C57         1.1460   -2.8620   -1.6850 c         1 MOL      0.791846
    166 O25         1.4380   -3.8690   -1.0420 o         1 MOL     -0.790311
    167 O26         0.5230   -2.0060   -1.0720 o         1 MOL     -0.790311
    168 H71         5.5680   -1.7960   -1.7240 hn        1 MOL      0.127301
    169 H72         3.6920   -3.9430   -2.0290 h1        1 MOL      0.043886
    170 H73         3.5670   -1.6000   -3.6910 hc        1 MOL     -0.084171
    171 H74         3.2100   -1.1570   -2.0400 hc        1 MOL     -0.084171
    172 H75         1.7610   -3.4780   -3.5620 hc        1 MOL     -0.077644
    173 H76         1.1120   -1.9210   -3.5740 hc        1 MOL     -0.077644
    174 N15         6.2480   -3.1400   -3.8890 n         1 MOL     -0.408962
    175 C58         7.0560   -3.9200   -4.8460 c3        1 MOL     -0.149824
    176 H77         7.8960   -3.3150   -5.1900 h1        1 MOL      0.084640
    177 H78         7.4330   -4.8190   -4.3580 h1        1 MOL      0.084640
    178 H79         6.4380   -4.2010   -5.7000 h1        1 MOL      0.084640
    179 H80         6.7160   -2.5820   -3.1880 hn        1 MOL      0.277406
    180 Ca1        -0.2320   -3.4880    0.8650 Ca        1 MOL      1.826456
    181 O27        -1.9620   -1.5500    0.8460 oh        1 MOL     -0.873307
    182 H81        -2.1640   -0.6120    0.7780 ho        1 MOL      0.418575
    183 H82        -2.7570   -1.9800    0.5300 ho        1 MOL      0.418575
    184 O28        -0.3830   -6.0610    0.9850 oh        1 MOL     -0.873307
    185 H83        -1.2840   -6.2840    1.2240 ho        1 MOL      0.418575
    186 H84        -0.1310   -6.7150    0.3310 ho        1 MOL      0.418575
    187 O29         2.1150   -3.7820    2.3170 oh        1 MOL     -0.873307
    188 H85         2.7220   -4.4020    1.9110 ho        1 MOL      0.418575
    189 H86         2.5200   -3.5580    3.1520 ho        1 MOL      0.418575
    190 O30        -0.5570   -4.0340    3.4680 oh        1 MOL     -0.873307
    191 H87        -1.1880   -4.7560    3.4630 ho        1 MOL      0.418575
    192 H88        -0.1520   -4.0820    4.3370 ho        1 MOL      0.418575
    193 O31         0.5520   -1.2430    2.2690 oh        1 MOL     -0.873307
    194 H89         1.0870   -0.4710    2.0660 ho        1 MOL      0.418575
    195 H90         0.9480   -1.6100    3.0580 ho        1 MOL      0.418575
@<TRIPOS>BOND
     1    1    2 1   
     2    1    4 1   
     3    1    5 1   
     4    1    6 1   
     5    2    3 2   
     6    2    7 1   
     7    7    8 1   
     8    7   15 1   
     9    8    9 1   
    10    8   11 1   
    11    8   16 1   
    12    9   10 2   
    13    9   19 1   
    14   11   12 1   
    15   11   17 1   
    16   11   18 1   
    17   12   13 1   
    18   12   14 1   
    19   19   20 1   
    20   19   27 1   
    21   20   21 1   
    22   20   23 1   
    23   20   28 1   
    24   21   22 2   
    25   21   38 1   
    26   23   24 1   
    27   23   25 1   
    28   23   29 1   
    29   24   26 1   
    30   24   30 1   
    31   24   31 1   
    32   25   32 1   
    33   25   33 1   
    34   25   34 1   
    35   26   35 1   
    36   26   36 1   
    37   26   37 1   
    38   38   39 1   
    39   38   46 1   
    40   39   40 1   
    41   39   42 1   
    42   39   47 1   
    43   40   41 2   
    44   40   50 1   
    45   42   43 1   
    46   42   48 1   
    47   42   49 1   
    48   43   44 1   
    49   43   45 1   
    50   50   51 1   
    51   50   54 1   
    52   51   52 1   
    53   51   55 1   
    54   51   56 1   
    55   52   53 2   
    56   52   57 1   
    57   57   58 1   
    58   57   65 1   
    59   58   59 1   
    60   58   61 1   
    61   58   66 1   
    62   59   60 2   
    63   59   69 1   
    64   61   62 1   
    65   61   67 1   
    66   61   68 1   
    67   62   63 1   
    68   62   64 1   
    69   69   70 1   
    70   69   73 1   
    71   70   71 1   
    72   70   74 1   
    73   70   75 1   
    74   71   72 2   
    75   71   76 1   
    76   76   77 1   
    77   76   85 1   
    78   77   78 1   
    79   77   80 1   
    80   77   86 1   
    81   78   79 2   
    82   78   93 1   
    83   80   81 1   
    84   80   87 1   
    85   80   88 1   
    86   81   82 1   
    87   81   89 1   
    88   81   90 1   
    89   82   83 1   
    90   82   84 2   
    91   83   91 1   
    92   83   92 1   
    93   93   94 1   
    94   93  100 1   
    95   94   95 1   
    96   94   97 1   
    97   94  101 1   
    98   95   96 2   
    99   95  109 1   
   100   97   98 1   
   101   97   99 1   
   102   97  102 1   
   103   98  103 1   
   104   98  104 1   
   105   98  105 1   
   106   99  106 1   
   107   99  107 1   
   108   99  108 1   
   109  109  110 1   
   110  109  117 1   
   111  110  111 1   
   112  110  113 1   
   113  110  118 1   
   114  111  112 2   
   115  111  123 1   
   116  113  114 1   
   117  113  119 1   
   118  113  120 1   
   119  114  115 1   
   120  114  116 2   
   121  115  121 1   
   122  115  122 1   
   123  123  124 1   
   124  123  135 1   
   125  124  125 1   
   126  124  127 1   
   127  124  136 1   
   128  125  126 2   
   129  125  144 1   
   130  127  128 1   
   131  127  137 1   
   132  127  138 1   
   133  128  129 ar  
   134  128  130 ar  
   135  129  131 ar  
   136  129  139 1   
   137  130  132 ar  
   138  130  140 1   
   139  131  133 ar  
   140  131  141 1   
   141  132  133 ar  
   142  132  142 1   
   143  133  134 1   
   144  134  143 1   
   145  144  145 1   
   146  144  153 1   
   147  145  146 1   
   148  145  148 1   
   149  145  154 1   
   150  146  147 2   
   151  146  159 1   
   152  148  149 1   
   153  148  155 1   
   154  148  156 1   
   155  149  150 1   
   156  149  157 1   
   157  149  158 1   
   158  150  151 1   
   159  150  152 1   
   160  159  160 1   
   161  159  168 1   
   162  160  161 1   
   163  160  163 1   
   164  160  169 1   
   165  161  162 2   
   166  161  174 1   
   167  163  164 1   
   168  163  170 1   
   169  163  171 1   
   170  164  165 1   
   171  164  172 1   
   172  164  173 1   
   173  165  166 1   
   174  165  167 1   
   175  174  175 1   
   176  174  179 1   
   177  175  176 1   
   178  175  177 1   
   179  175  178 1   
   180  181  182 1   
   181  181  183 1   
   182  184  185 1   
   183  184  186 1   
   184  187  188 1   
   185  187  189 1   
   186  190  191 1   
   187  190  192 1   
   188  193  194 1   
   189  193  195 1   
@<TRIPOS>SUBSTRUCTURE
     1 MOL         1 TEMP              0 ****  ****    0 ROOT
