@<TRIPOS>MOLECULE
MOL
  195   189     1     0     0
SMALL
resp


@<TRIPOS>ATOM
      1 C1          5.9740    1.8980    5.4680 c3        1 MOL     -0.118813
      2 C2          5.6410    1.4910    4.0440 c         1 MOL      0.739932
      3 O1          5.3870    2.3690    3.2060 o         1 MOL     -0.628733
      4 H1          5.3190    2.7130    5.7750 hc        1 MOL      0.024902
      5 H2          5.8310    1.0470    6.1330 hc        1 MOL      0.024902
      6 H3          7.0120    2.2290    5.5190 hc        1 MOL      0.024902
      7 N1          5.6130    0.2310    3.6720 n         1 MOL     -0.561975
      8 C3          5.2340   -0.3510    2.3740 c3        1 MOL      0.508068
      9 C4          3.6860   -0.1840    2.0410 c         1 MOL     -0.017715
     10 O2          3.3600   -0.4900    0.8700 o         1 MOL      0.094058
     11 C5          5.6280   -1.7990    2.2600 c3        1 MOL     -0.575002
     12 C6          7.0490   -2.0330    2.8000 c         1 MOL      0.780318
     13 O3          7.2060   -2.0620    4.0120 o         1 MOL     -0.712223
     14 O4          8.0380   -2.1050    2.0230 o         1 MOL     -0.712223
     15 H4          5.9760   -0.3590    4.3970 hn        1 MOL      0.284125
     16 H5          5.7910    0.1900    1.6170 h1        1 MOL      0.059383
     17 H6          5.4930   -2.1770    1.2480 hc        1 MOL      0.076894
     18 H7          4.9720   -2.4190    2.8670 hc        1 MOL      0.076894
     19 N2          2.7920    0.2160    2.9660 n         1 MOL     -0.214484
     20 C7          1.3860    0.1580    2.7760 c3        1 MOL      0.086955
     21 C8          0.7610    1.5580    2.6850 c         1 MOL      0.418956
     22 O5          0.9670    2.3630    3.5720 o         1 MOL     -0.517623
     23 C9          0.7410   -0.5170    4.0260 c3        1 MOL     -0.601348
     24 C10         1.0560   -2.0540    3.9090 c3        1 MOL      0.164438
     25 C11         0.4330   -2.8140    5.0200 c3        1 MOL     -0.081262
     26 C12         1.0360   -4.2320    5.1790 c3        1 MOL      0.122300
     27 N3          0.3900   -5.1230    4.2390 n4        1 MOL     -0.551808
     28 H8          3.1070    0.5230    3.8700 hn        1 MOL      0.234483
     29 H9          1.1070   -0.5250    1.9660 h1        1 MOL     -0.056377
     30 H10        -0.3390   -0.3940    4.0180 hc        1 MOL      0.199518
     31 H11         1.1140   -0.0510    4.9380 hc        1 MOL      0.199518
     32 H12         2.1400   -2.0430    4.0210 hc        1 MOL      0.043775
     33 H13         0.5860   -2.4020    2.9860 hc        1 MOL      0.043775
     34 H14        -0.6410   -2.8630    4.8400 hc        1 MOL      0.051925
     35 H15         0.6220   -2.3700    5.9950 hc        1 MOL      0.051925
     36 H16         0.8000   -4.5380    6.2020 hx        1 MOL      0.057277
     37 H17         2.1240   -4.2550    5.1500 hx        1 MOL      0.057277
     38 H18         0.3410   -4.7750    3.2900 hn        1 MOL      0.378632
     39 H19         0.9030   -5.9870    4.1470 hn        1 MOL      0.378632
     40 H20        -0.5570   -5.2510    4.5560 hn        1 MOL      0.378632
     41 N4         -0.1960    1.7820    1.7760 n         1 MOL      0.076764
     42 C13        -0.7480    0.8670    0.7120 c3        1 MOL     -0.551466
     43 C14        -1.1340   -0.5520    1.2350 c         1 MOL      0.257950
     44 O6         -0.6730   -1.5970    0.8270 o         1 MOL     -0.370160
     45 C15         0.0390    0.8720   -0.6180 c3        1 MOL     -0.135361
     46 C16         0.0930    2.2540   -1.2480 c         1 MOL      0.610358
     47 O7         -0.8040    3.0820   -1.0910 o         1 MOL     -0.623509
     48 O8          1.0180    2.3660   -2.0530 o         1 MOL     -0.623509
     49 H21        -0.5450    2.7290    1.6900 hn        1 MOL      0.075299
     50 H22        -1.6850    1.3430    0.4340 h1        1 MOL      0.085667
     51 H23        -0.4980    0.2380   -1.3300 hc        1 MOL      0.155821
     52 H24         1.0320    0.5560   -0.3110 hc        1 MOL      0.155821
     53 N5         -2.0860   -0.5550    2.1980 n         1 MOL     -0.269191
     54 C17        -2.9160    0.6100    2.5810 c3        1 MOL      0.039503
     55 C18        -4.1580    0.1120    3.3500 c         1 MOL      0.495250
     56 O9         -4.1260   -0.9660    3.8720 o         1 MOL     -0.523626
     57 H25        -2.1900   -1.4370    2.6850 hn        1 MOL      0.257075
     58 H26        -3.2250    1.0710    1.6470 h1        1 MOL      0.077885
     59 H27        -2.3830    1.2930    3.2470 h1        1 MOL      0.077885
     60 N6         -5.2750    0.8670    3.6030 n         1 MOL     -0.434399
     61 C19        -5.7320    2.0710    2.8410 c3        1 MOL      0.016923
     62 C20        -6.4130    1.6060    1.5590 c         1 MOL      0.512076
     63 O10        -7.0640    0.6020    1.4640 o         1 MOL     -0.482940
     64 C21        -6.6330    3.0610    3.6900 c3        1 MOL     -0.246597
     65 C22        -7.9680    2.4630    4.2490 c         1 MOL      0.768701
     66 O11        -9.0390    3.0280    4.1090 o         1 MOL     -0.661236
     67 O12        -7.9780    1.4760    5.0290 o         1 MOL     -0.661236
     68 H28        -5.9260    0.4700    4.2520 hn        1 MOL      0.278131
     69 H29        -4.8630    2.6590    2.5580 h1        1 MOL      0.007799
     70 H30        -6.9150    3.8460    2.9980 hc        1 MOL      0.046024
     71 H31        -6.0900    3.4180    4.5650 hc        1 MOL      0.046024
     72 N7         -6.3860    2.4990    0.6050 n         1 MOL     -0.136945
     73 C23        -7.1570    2.5650   -0.6060 c3        1 MOL     -0.237286
     74 C24        -6.8420    1.5340   -1.6650 c         1 MOL      0.569578
     75 O13        -7.6000    1.3150   -2.6300 o         1 MOL     -0.562851
     76 H32        -5.8040    3.3120    0.7750 hn        1 MOL      0.164046
     77 H33        -6.9660    3.5390   -1.0670 h1        1 MOL      0.118323
     78 H34        -8.2350    2.5210   -0.4530 h1        1 MOL      0.118323
     79 N8         -5.6490    0.9600   -1.6440 n         1 MOL     -0.382177
     80 C25        -5.2670   -0.2790   -2.4060 c3        1 MOL      0.075481
     81 C26        -4.5130   -1.1540   -1.3530 c         1 MOL      0.285771
     82 O14        -3.5260   -0.8150   -0.6900 o         1 MOL     -0.277534
     83 C27        -4.4090   -0.0370   -3.6440 c3        1 MOL      0.437385
     84 C28        -4.8570    1.0570   -4.5970 c3        1 MOL     -0.160847
     85 O15        -4.2570   -1.2690   -4.1830 oh        1 MOL     -0.633732
     86 H35        -5.1180    1.1310   -0.7980 hn        1 MOL      0.124342
     87 H36        -6.1640   -0.7560   -2.7760 h1        1 MOL      0.093487
     88 H37        -3.5000    0.4320   -3.2760 h1        1 MOL     -0.044015
     89 H38        -3.3480   -1.3840   -4.4760 ho        1 MOL      0.406071
     90 H39        -4.2570    1.0150   -5.5100 hc        1 MOL      0.033832
     91 H40        -5.8910    0.8680   -4.9040 hc        1 MOL      0.033832
     92 H41        -4.8160    2.0310   -4.1190 hc        1 MOL      0.033832
     93 N9         -5.0640   -2.3470   -1.2180 n         1 MOL     -0.299146
     94 C29        -4.5700   -3.3880   -0.2980 c3        1 MOL     -0.068643
     95 C30        -3.3150   -4.1400   -0.6420 c         1 MOL      0.334731
     96 O16        -2.8200   -4.9780    0.1410 o         1 MOL     -0.578247
     97 C31        -5.7200   -4.4200    0.0900 c3        1 MOL      0.138774
     98 C32        -6.5870   -4.9490   -1.1350 c3        1 MOL      0.066805
     99 C33        -6.8280   -3.7250    1.0250 c3        1 MOL     -0.264335
    100 C34        -5.7180   -5.6520   -2.2400 c3        1 MOL     -0.106403
    101 H42        -5.9300   -2.5590   -1.7010 hn        1 MOL      0.265044
    102 H43        -4.2350   -2.9640    0.6510 h1        1 MOL      0.111151
    103 H44        -5.3640   -5.2890    0.6340 hc        1 MOL      0.047103
    104 H45        -7.2720   -4.2350   -1.5840 hc        1 MOL     -0.017264
    105 H46        -7.1950   -5.7110   -0.6450 hc        1 MOL     -0.017264
    106 H47        -7.7410   -4.3260    0.9500 hc        1 MOL      0.068573
    107 H48        -6.4880   -3.6640    2.0510 hc        1 MOL      0.068573
    108 H49        -7.1720   -2.7480    0.6620 hc        1 MOL      0.068573
    109 H50        -6.2820   -6.2320   -2.9630 hc        1 MOL      0.024185
    110 H51        -5.3320   -4.8380   -2.8530 hc        1 MOL      0.024185
    111 H52        -5.0150   -6.3080   -1.7360 hc        1 MOL      0.024185
    112 N10        -2.7300   -3.8250   -1.7630 n         1 MOL      0.019757
    113 C35        -1.4280   -4.4760   -2.2390 c3        1 MOL     -0.056478
    114 C36        -0.2730   -3.4810   -2.0950 c         1 MOL      0.441101
    115 O17        -0.2980   -2.3870   -2.6000 o         1 MOL     -0.433157
    116 C37        -1.5670   -5.0400   -3.6760 c3        1 MOL      0.440280
    117 C38        -2.1290   -4.0900   -4.7280 c3        1 MOL     -0.305121
    118 O18        -2.4720   -6.1440   -3.7070 oh        1 MOL     -0.665079
    119 H53        -3.1230   -3.0580   -2.2820 hn        1 MOL      0.025605
    120 H54        -1.2600   -5.3520   -1.6160 h1        1 MOL      0.101179
    121 H55        -0.6140   -5.4490   -4.0040 h1        1 MOL      0.002196
    122 H56        -3.0480   -5.9140   -4.4340 ho        1 MOL      0.377938
    123 H57        -3.1250   -3.6700   -4.6540 hc        1 MOL      0.065813
    124 H58        -1.5510   -3.1640   -4.7180 hc        1 MOL      0.065813
    125 H59        -2.0080   -4.5800   -5.7030 hc        1 MOL      0.065813
    126 N11         0.7410   -3.8400   -1.2900 n         1 MOL     -0.510081
    127 C39         1.7740   -2.9960   -0.7130 c3        1 MOL      0.030083
    128 C40         2.6140   -2.4950   -1.9280 c         1 MOL      0.238100
    129 O19         2.5670   -3.0090   -3.0550 o         1 MOL     -0.498197
    130 C41         2.7330   -3.6720    0.3340 c3        1 MOL      0.450601
    131 C42         3.4610   -4.8610   -0.2620 c3        1 MOL     -0.221242
    132 O20         1.8990   -4.0680    1.4180 oh        1 MOL     -0.703669
    133 H60         0.7670   -4.7520   -0.8650 hn        1 MOL      0.293202
    134 H61         1.3530   -2.1580   -0.1680 h1        1 MOL      0.217911
    135 H62         3.3280   -2.9000    0.8210 h1        1 MOL     -0.040540
    136 H63         2.5010   -4.4490    2.0670 ho        1 MOL      0.368635
    137 H64         2.7050   -5.5880   -0.5650 hc        1 MOL      0.048716
    138 H65         4.0680   -4.6120   -1.1400 hc        1 MOL      0.048716
    139 H66         4.0750   -5.4240    0.4460 hc        1 MOL      0.048716
    140 N12         3.3470   -1.4200   -1.6970 n         1 MOL      0.221657
    141 C43         4.3250   -0.7300   -2.5490 c3        1 MOL      0.114430
    142 C44         4.0940    0.8040   -2.4750 c         1 MOL      0.431370
    143 O21         3.7820    1.4690   -3.4910 o         1 MOL     -0.554416
    144 C45         5.7920   -1.1390   -2.3000 c3        1 MOL     -0.247146
    145 C46         6.2100   -2.4480   -3.0020 c3        1 MOL      0.029115
    146 C47         7.4220   -3.1360   -2.3280 c3        1 MOL      0.109796
    147 C48         8.0780   -4.2190   -3.1220 c3        1 MOL      0.007592
    148 N13         9.0960   -4.8840   -2.3370 n4        1 MOL     -0.333828
    149 H67         3.2250   -1.0410   -0.7750 hn        1 MOL     -0.443631
    150 H68         4.0410   -1.0620   -3.5480 h1        1 MOL      0.042019
    151 H69         5.8810   -1.2590   -1.2200 hc        1 MOL      0.090179
    152 H70         6.4300   -0.3490   -2.7040 hc        1 MOL      0.090179
    153 H71         6.3830   -2.3190   -4.0730 hc        1 MOL      0.010557
    154 H72         5.3940   -3.1650   -2.9270 hc        1 MOL      0.010557
    155 H73         7.1730   -3.4810   -1.3200 hc        1 MOL      0.001087
    156 H74         8.1430   -2.3500   -2.0800 hc        1 MOL      0.001087
    157 H75         8.4920   -3.7390   -4.0110 hx        1 MOL      0.066595
    158 H76         7.3300   -4.9770   -3.3390 hx        1 MOL      0.066595
    159 H77         8.6600   -5.2500   -1.5000 hn        1 MOL      0.319173
    160 H78         9.4270   -5.6310   -2.9340 hn        1 MOL      0.319173
    161 H79         9.8010   -4.2310   -2.0310 hn        1 MOL      0.319173
    162 N14         4.1850    1.4800   -1.2960 n         1 MOL     -0.242539
    163 C49         4.0850    2.9310   -1.0580 c3        1 MOL     -0.070898
    164 C50         5.5190    3.5490   -1.0830 c         1 MOL      0.169724
    165 O22         6.3480    3.0120   -0.3170 o         1 MOL     -0.457557
    166 C51         3.2570    3.1670    0.2440 c3        1 MOL      1.621636
    167 C52         3.1340    4.6270    0.7640 c3        1 MOL     -0.469220
    168 C53         2.6170    5.6350   -0.3080 c         1 MOL      0.583167
    169 O23         3.4920    6.2340   -0.9620 o         1 MOL     -0.722668
    170 O24         1.4290    5.7440   -0.6130 o         1 MOL     -0.722668
    171 H80         4.3700    1.0000   -0.4260 hn        1 MOL      0.118325
    172 H81         3.4470    3.3460   -1.8450 h1        1 MOL      0.114452
    173 H82         3.8240    2.5710    0.9610 hc        1 MOL     -0.554500
    174 H83         2.2640    2.8170   -0.0480 hc        1 MOL     -0.554500
    175 H84         4.0890    5.0040    1.1090 hc        1 MOL      0.088979
    176 H85         2.3780    4.6260    1.5500 hc        1 MOL      0.088979
    177 N15         5.8150    4.6190   -1.7830 n         1 MOL     -0.161798
    178 C54         7.0870    5.3460   -1.7370 c3        1 MOL     -0.079143
    179 H86         7.0040    6.1790   -1.0390 h1        1 MOL      0.062055
    180 H87         7.8790    4.6750   -1.4080 h1        1 MOL      0.062055
    181 H88         7.3230    5.7280   -2.7300 h1        1 MOL      0.062055
    182 H89         5.1820    5.0160   -2.4590 hn        1 MOL      0.284316
    183 Ca1        -0.9690    5.5890   -1.1600 Ca        1 MOL      1.593581
    184 O25        -1.9560    7.5100   -2.8260 oh        1 MOL     -0.794339
    185 H90        -2.7810    7.7670   -3.2480 ho        1 MOL      0.394446
    186 H91        -1.3150    8.1090   -3.1840 ho        1 MOL      0.394446
    187 O26         0.0840    5.2410   -3.6450 oh        1 MOL     -0.794339
    188 H92         0.1700    5.6540   -4.5030 ho        1 MOL      0.394446
    189 H93         0.7230    4.5210   -3.6590 ho        1 MOL      0.394446
    190 O27        -2.6760    4.5380   -3.3270 oh        1 MOL     -0.794339
    191 H94        -2.4790    5.0600   -4.1090 ho        1 MOL      0.394446
    192 H95        -2.6980    3.6340   -3.6380 ho        1 MOL      0.394446
    193 O28         1.0110    7.6640   -2.3100 oh        1 MOL     -0.794339
    194 H96         1.5620    7.1230   -1.7450 ho        1 MOL      0.394446
    195 H97         0.7080    8.3710   -1.7380 ho        1 MOL      0.394446
@<TRIPOS>BOND
     1    1    2 1   
     2    1    4 1   
     3    1    5 1   
     4    1    6 1   
     5    2    3 2   
     6    2    7 1   
     7    7    8 1   
     8    7   15 1   
     9    8    9 1   
    10    8   11 1   
    11    8   16 1   
    12    9   10 2   
    13    9   19 1   
    14   11   12 1   
    15   11   17 1   
    16   11   18 1   
    17   12   13 1   
    18   12   14 1   
    19   19   20 1   
    20   19   28 1   
    21   20   21 1   
    22   20   23 1   
    23   20   29 1   
    24   21   22 2   
    25   21   41 1   
    26   23   24 1   
    27   23   30 1   
    28   23   31 1   
    29   24   25 1   
    30   24   32 1   
    31   24   33 1   
    32   25   26 1   
    33   25   34 1   
    34   25   35 1   
    35   26   27 1   
    36   26   36 1   
    37   26   37 1   
    38   27   38 1   
    39   27   39 1   
    40   27   40 1   
    41   41   42 1   
    42   41   49 1   
    43   42   43 1   
    44   42   45 1   
    45   42   50 1   
    46   43   44 2   
    47   43   53 1   
    48   45   46 1   
    49   45   51 1   
    50   45   52 1   
    51   46   47 1   
    52   46   48 1   
    53   53   54 1   
    54   53   57 1   
    55   54   55 1   
    56   54   58 1   
    57   54   59 1   
    58   55   56 2   
    59   55   60 1   
    60   60   61 1   
    61   60   68 1   
    62   61   62 1   
    63   61   64 1   
    64   61   69 1   
    65   62   63 2   
    66   62   72 1   
    67   64   65 1   
    68   64   70 1   
    69   64   71 1   
    70   65   66 1   
    71   65   67 1   
    72   72   73 1   
    73   72   76 1   
    74   73   74 1   
    75   73   77 1   
    76   73   78 1   
    77   74   75 2   
    78   74   79 1   
    79   79   80 1   
    80   79   86 1   
    81   80   81 1   
    82   80   83 1   
    83   80   87 1   
    84   81   82 2   
    85   81   93 1   
    86   83   84 1   
    87   83   85 1   
    88   83   88 1   
    89   84   90 1   
    90   84   91 1   
    91   84   92 1   
    92   85   89 1   
    93   93   94 1   
    94   93  101 1   
    95   94   95 1   
    96   94   97 1   
    97   94  102 1   
    98   95   96 2   
    99   95  112 1   
   100   97   98 1   
   101   97   99 1   
   102   97  103 1   
   103   98  100 1   
   104   98  104 1   
   105   98  105 1   
   106   99  106 1   
   107   99  107 1   
   108   99  108 1   
   109  100  109 1   
   110  100  110 1   
   111  100  111 1   
   112  112  113 1   
   113  112  119 1   
   114  113  114 1   
   115  113  116 1   
   116  113  120 1   
   117  114  115 2   
   118  114  126 1   
   119  116  117 1   
   120  116  118 1   
   121  116  121 1   
   122  117  123 1   
   123  117  124 1   
   124  117  125 1   
   125  118  122 1   
   126  126  127 1   
   127  126  133 1   
   128  127  128 1   
   129  127  130 1   
   130  127  134 1   
   131  128  129 2   
   132  128  140 1   
   133  130  131 1   
   134  130  132 1   
   135  130  135 1   
   136  131  137 1   
   137  131  138 1   
   138  131  139 1   
   139  132  136 1   
   140  140  141 1   
   141  140  149 1   
   142  141  142 1   
   143  141  144 1   
   144  141  150 1   
   145  142  143 2   
   146  142  162 1   
   147  144  145 1   
   148  144  151 1   
   149  144  152 1   
   150  145  146 1   
   151  145  153 1   
   152  145  154 1   
   153  146  147 1   
   154  146  155 1   
   155  146  156 1   
   156  147  148 1   
   157  147  157 1   
   158  147  158 1   
   159  148  159 1   
   160  148  160 1   
   161  148  161 1   
   162  162  163 1   
   163  162  171 1   
   164  163  164 1   
   165  163  166 1   
   166  163  172 1   
   167  164  165 2   
   168  164  177 1   
   169  166  167 1   
   170  166  173 1   
   171  166  174 1   
   172  167  168 1   
   173  167  175 1   
   174  167  176 1   
   175  168  169 1   
   176  168  170 1   
   177  177  178 1   
   178  177  182 1   
   179  178  179 1   
   180  178  180 1   
   181  178  181 1   
   182  184  185 1   
   183  184  186 1   
   184  187  188 1   
   185  187  189 1   
   186  190  191 1   
   187  190  192 1   
   188  193  194 1   
   189  193  195 1   
@<TRIPOS>SUBSTRUCTURE
     1 MOL         1 TEMP              0 ****  ****    0 ROOT
