@<TRIPOS>MOLECULE
MOL
  192   187     1     0     0
SMALL
resp


@<TRIPOS>ATOM
      1 C1          9.0090    0.4440    2.4960 c3        1 MOL     -0.531963
      2 C2          8.0630    0.0600    1.3670 c         1 MOL      0.800968
      3 O1          6.8330    0.0080    1.6460 o         1 MOL     -0.728416
      4 H1          8.9070    1.5090    2.7090 hc        1 MOL      0.134525
      5 H2          8.7610   -0.1290    3.3890 hc        1 MOL      0.134525
      6 H3         10.0350    0.2290    2.1990 hc        1 MOL      0.134525
      7 N1          8.4830    0.0010    0.0760 n         1 MOL     -0.471675
      8 C3          7.6280   -0.1470   -1.1410 c3        1 MOL      0.048613
      9 C4          7.1500   -1.5420   -1.3670 c         1 MOL      0.397300
     10 O2          7.3520   -2.1590   -2.4570 o         1 MOL     -0.471392
     11 C5          8.4410    0.5070   -2.2640 c3        1 MOL     -0.215176
     12 C6          9.8580   -0.0610   -2.5710 c         1 MOL      0.749834
     13 O3         10.3270    0.1600   -3.6800 o         1 MOL     -0.658022
     14 O4         10.4880   -0.7330   -1.6850 o         1 MOL     -0.658022
     15 H4          9.4670   -0.0380   -0.1160 hn        1 MOL      0.197033
     16 H5          6.7640    0.4940   -0.9520 h1        1 MOL      0.056361
     17 H6          8.6420    1.5540   -2.0540 hc        1 MOL      0.078285
     18 H7          7.8050    0.4210   -3.1510 hc        1 MOL      0.078285
     19 N2          6.5990   -2.1180   -0.3000 n         1 MOL     -0.203159
     20 C7          6.1180   -3.4790   -0.1430 c3        1 MOL      0.058619
     21 C8          4.6090   -3.6340   -0.5240 c         1 MOL      0.466742
     22 O5          4.2690   -4.5920   -1.2680 o         1 MOL     -0.537930
     23 C9          6.3470   -3.9940    1.3100 c3        1 MOL      0.215610
     24 C10         7.8150   -3.9860    1.7580 c3        1 MOL     -0.527403
     25 C11         7.9340   -4.8450    3.0620 c3        1 MOL      0.319407
     26 C12         9.3650   -5.0070    3.4970 c3        1 MOL     -0.135531
     27 N3          9.4500   -5.0250    4.9860 n4        1 MOL     -0.375633
     28 H8          6.6280   -1.5160    0.5120 hn        1 MOL      0.203361
     29 H9          6.7400   -4.1980   -0.6800 h1        1 MOL      0.073572
     30 H10         5.9350   -4.9940    1.3440 hc        1 MOL     -0.042288
     31 H11         5.8230   -3.3810    2.0580 hc        1 MOL     -0.042288
     32 H12         8.1240   -2.9410    1.7760 hc        1 MOL      0.119613
     33 H13         8.3960   -4.4640    0.9710 hc        1 MOL      0.119613
     34 H14         7.5160   -5.8400    2.9280 hc        1 MOL     -0.007813
     35 H15         7.3520   -4.3860    3.8540 hc        1 MOL     -0.007813
     36 H16         9.9290   -4.1020    3.2690 hx        1 MOL      0.138119
     37 H17         9.7150   -5.9250    3.0320 hx        1 MOL      0.138119
     38 H18        10.3100   -4.5610    5.2190 hn        1 MOL      0.296982
     39 H19         8.8690   -4.3670    5.4900 hn        1 MOL      0.296982
     40 H20         9.3530   -5.9550    5.3730 hn        1 MOL      0.296982
     41 N4          3.6500   -2.7630   -0.1430 n         1 MOL     -0.456415
     42 C13         3.8370   -1.5720    0.6560 c3        1 MOL      0.016055
     43 C14         3.8910   -0.2290   -0.1130 c         1 MOL      0.559141
     44 O6          3.9040   -0.2830   -1.3400 o         1 MOL     -0.500378
     45 C15         2.6590   -1.5220    1.7040 c3        1 MOL     -0.226465
     46 C16         1.3200   -1.5440    0.9810 c         1 MOL      0.735417
     47 O7          1.0710   -0.6590    0.1810 o         1 MOL     -0.729273
     48 O8          0.5250   -2.5040    1.0910 o         1 MOL     -0.729273
     49 H21         2.7540   -2.9260   -0.5970 hn        1 MOL      0.368089
     50 H22         4.6890   -1.6900    1.3290 h1        1 MOL      0.106024
     51 H23         2.8670   -0.6310    2.2830 hc        1 MOL      0.043232
     52 H24         2.6930   -2.3790    2.3890 hc        1 MOL      0.043232
     53 N5          3.8810    0.8830    0.5920 n         1 MOL     -0.286683
     54 C17         4.0980    2.2550    0.1490 c3        1 MOL     -0.037496
     55 C18         2.8820    2.9430   -0.5610 c         1 MOL      0.405590
     56 O9          1.8140    2.4200   -0.5950 o         1 MOL     -0.494939
     57 H25         3.8470    0.7250    1.5860 hn        1 MOL      0.273316
     58 H26         4.9290    2.3570   -0.5360 h1        1 MOL      0.082833
     59 H27         4.4290    2.8810    0.9680 h1        1 MOL      0.082833
     60 N6          3.0020    4.1070   -1.1520 n         1 MOL     -0.389279
     61 C19         1.9120    4.9570   -1.6950 c3        1 MOL      0.168531
     62 C20         2.1870    6.4750   -1.5090 c         1 MOL      0.464039
     63 O10         3.3740    6.9470   -1.4390 o         1 MOL     -0.528478
     64 C21         1.7640    4.6390   -3.1590 c3        1 MOL     -0.094357
     65 C22         1.6730    3.2000   -3.5110 c         1 MOL      0.599920
     66 O11         2.6120    2.6210   -4.1450 o         1 MOL     -0.652274
     67 O12         0.6110    2.6230   -3.1060 o         1 MOL     -0.652274
     68 H28         3.9150    4.5310   -1.1740 hn        1 MOL      0.262872
     69 H29         1.0280    4.7000   -1.1160 h1        1 MOL      0.017785
     70 H30         2.6210    5.0800   -3.6750 hc        1 MOL      0.024029
     71 H31         0.8610    5.0890   -3.5750 hc        1 MOL      0.024029
     72 N7          1.1710    7.3760   -1.4670 n         1 MOL     -0.466629
     73 C23        -0.2580    7.0820   -1.6760 c3        1 MOL      0.042497
     74 C24        -1.0290    6.3980   -0.4740 c         1 MOL      0.596835
     75 O13        -0.6080    6.6010    0.6510 o         1 MOL     -0.509637
     76 H32         1.3690    8.3470   -1.6370 hn        1 MOL      0.339877
     77 H33        -0.4710    6.4270   -2.5260 h1        1 MOL      0.030721
     78 H34        -0.7010    8.0200   -2.0250 h1        1 MOL      0.030721
     79 N8         -2.0200    5.6540   -0.8120 n         1 MOL     -0.742542
     80 C25        -2.8790    4.8760    0.1300 c3        1 MOL      0.434445
     81 C26        -1.9950    3.6980    0.6920 c         1 MOL      0.332873
     82 O14        -1.1690    3.0800   -0.0420 o         1 MOL     -0.641162
     83 C27        -4.2150    4.4360   -0.4150 c3        1 MOL      0.469211
     84 C28        -4.9760    5.6740   -0.9860 c3        1 MOL     -0.508333
     85 O15        -4.7740    3.8780    0.7130 oh        1 MOL     -0.672177
     86 H35        -2.0520    5.4790   -1.8050 hn        1 MOL      0.331286
     87 H36        -3.1260    5.6900    0.8150 h1        1 MOL      0.026503
     88 H37        -4.0590    3.7650   -1.2530 h1        1 MOL     -0.032635
     89 H38        -5.5650    3.4410    0.3910 ho        1 MOL      0.387131
     90 H39        -4.7860    5.6970   -2.0550 hc        1 MOL      0.130897
     91 H40        -6.0560    5.5120   -0.9190 hc        1 MOL      0.130897
     92 H41        -4.7590    6.5310   -0.3420 hc        1 MOL      0.130897
     93 N9         -2.1460    3.3410    1.9770 n         1 MOL     -0.529139
     94 C29        -1.3740    2.3670    2.7110 c3        1 MOL      0.217920
     95 C30        -1.7930    0.9020    2.3080 c         1 MOL      0.586512
     96 O16        -1.6050    0.5050    1.1520 o         1 MOL     -0.467128
     97 C31         0.2220    2.4700    2.7570 c3        1 MOL      0.332871
     98 C32         0.9330    3.8760    2.7200 c3        1 MOL      0.005406
     99 C33         0.8230    1.6250    3.9180 c3        1 MOL     -0.455674
    100 C34         0.5930    4.6080    4.0010 c3        1 MOL     -0.317042
    101 H42        -2.9620    3.7590    2.4060 hn        1 MOL      0.300921
    102 H43        -1.7400    2.5360    3.7280 h1        1 MOL      0.014053
    103 H44         0.5390    2.0010    1.8200 hc        1 MOL     -0.176144
    104 H45         0.6240    4.4260    1.8340 hc        1 MOL      0.067648
    105 H46         2.0150    3.7980    2.6840 hc        1 MOL      0.067648
    106 H47         0.6940    0.5480    3.8180 hc        1 MOL      0.102514
    107 H48         1.9050    1.8200    3.9260 hc        1 MOL      0.102514
    108 H49         0.2550    1.8250    4.8240 hc        1 MOL      0.102514
    109 H50        -0.4930    4.6930    3.9900 hc        1 MOL      0.065679
    110 H51         0.9230    4.1060    4.9090 hc        1 MOL      0.065679
    111 H52         1.0650    5.5820    3.8370 hc        1 MOL      0.065679
    112 N10        -2.3940    0.1230    3.2080 n         1 MOL     -0.566939
    113 C35        -2.7790   -1.2940    3.0870 c3        1 MOL     -0.038880
    114 C36        -4.2930   -1.5210    3.2310 c         1 MOL      0.471216
    115 O17        -4.7540   -2.6630    3.2400 o         1 MOL     -0.553117
    116 C37        -1.9240   -2.2310    3.9890 c3        1 MOL      0.464551
    117 C38        -2.0020   -1.9630    5.5020 c3        1 MOL     -0.246371
    118 O18        -0.5550   -2.1600    3.7020 oh        1 MOL     -0.608484
    119 H53        -2.5590    0.5580    4.0940 hn        1 MOL      0.269748
    120 H54        -2.5960   -1.6710    2.0750 h1        1 MOL      0.093611
    121 H55        -2.2320   -3.2640    3.8330 h1        1 MOL     -0.023516
    122 H56        -0.4560   -2.2510    2.7480 ho        1 MOL      0.373128
    123 H57        -3.0580   -1.8320    5.7640 hc        1 MOL      0.054137
    124 H58        -1.5550   -2.7110    6.1610 hc        1 MOL      0.054137
    125 H59        -1.4930   -1.0340    5.7680 hc        1 MOL      0.054137
    126 N11        -5.1300   -0.4600    3.1740 n         1 MOL     -0.161974
    127 C39        -6.5580   -0.4790    2.9110 c3        1 MOL     -0.214045
    128 C40        -6.8290   -0.9210    1.4510 c         1 MOL      0.515022
    129 O19        -7.2580   -0.0860    0.6220 o         1 MOL     -0.550091
    130 C41        -7.0910    0.9960    3.2130 c3        1 MOL      0.357690
    131 C42        -7.1820    1.2890    4.7760 c3        1 MOL     -0.193877
    132 O20        -6.1900    1.9200    2.6780 oh        1 MOL     -0.570824
    133 H60        -4.8210    0.4960    3.0960 hn        1 MOL      0.206328
    134 H61        -7.0150   -1.1900    3.6010 h1        1 MOL      0.092768
    135 H62        -8.0980    1.2100    2.8450 h1        1 MOL      0.012830
    136 H63        -6.4850    2.0730    1.7850 ho        1 MOL      0.370671
    137 H64        -8.2060    1.0360    5.0400 hc        1 MOL      0.049292
    138 H65        -6.4320    0.7090    5.3260 hc        1 MOL      0.049292
    139 H66        -7.0590    2.3510    4.9690 hc        1 MOL      0.049292
    140 N12        -6.5590   -2.1690    1.1800 n         1 MOL     -0.452967
    141 C43        -6.3950   -2.7340   -0.2060 c3        1 MOL      0.036361
    142 C44        -5.1160   -2.1440   -0.8640 c         1 MOL      0.603971
    143 O21        -4.7970   -0.9890   -0.8600 o         1 MOL     -0.503464
    144 C45        -7.6090   -2.5810   -1.0830 c3        1 MOL     -0.272224
    145 C46        -8.9930   -2.8810   -0.4640 c3        1 MOL      0.041338
    146 C47       -10.2070   -2.3980   -1.3130 c3        1 MOL     -0.014637
    147 C48       -11.4980   -3.0820   -0.7680 c3        1 MOL      0.098088
    148 N13       -12.6820   -2.4760   -1.4020 n4        1 MOL     -0.245892
    149 H67        -6.1820   -2.7270    1.9270 hn        1 MOL      0.308421
    150 H68        -6.4130   -3.8210   -0.1180 h1        1 MOL      0.078340
    151 H69        -7.4770   -3.1320   -2.0130 hc        1 MOL      0.095667
    152 H70        -7.6550   -1.5850   -1.5320 hc        1 MOL      0.095667
    153 H71        -8.9430   -2.3980    0.5140 hc        1 MOL      0.031810
    154 H72        -8.9460   -3.9600   -0.3480 hc        1 MOL      0.031810
    155 H73       -10.0470   -2.7550   -2.3280 hc        1 MOL      0.036825
    156 H74       -10.3830   -1.3180   -1.3110 hc        1 MOL      0.036825
    157 H75       -11.4520   -3.1270    0.3280 hx        1 MOL      0.037429
    158 H76       -11.3880   -4.1310   -1.0660 hx        1 MOL      0.037429
    159 H77       -13.3720   -3.1610   -1.1310 hn        1 MOL      0.229355
    160 H78       -12.8920   -1.5640   -1.0370 hn        1 MOL      0.229355
    161 H79       -12.5250   -2.4220   -2.3970 hn        1 MOL      0.229355
    162 N14        -4.4080   -3.0340   -1.6030 n         1 MOL     -0.592543
    163 C49        -3.2230   -2.8480   -2.3670 c3        1 MOL      0.566485
    164 C50        -1.9220   -2.5640   -1.5240 c         1 MOL      0.128617
    165 O22        -1.3360   -1.4900   -1.7400 o         1 MOL     -0.473639
    166 C51        -3.0590   -4.0130   -3.4120 c3        1 MOL     -0.152615
    167 C52        -4.0820   -4.0510   -4.5290 c3        1 MOL     -0.367645
    168 C53        -3.6750   -5.1670   -5.4750 c         1 MOL      0.753361
    169 O23        -2.8570   -4.9910   -6.3790 o         1 MOL     -0.639133
    170 O24        -4.1640   -6.3170   -5.3110 o         1 MOL     -0.639133
    171 H80        -4.7980   -3.9670   -1.5890 hn        1 MOL      0.264055
    172 H81        -3.3120   -1.9160   -2.9290 h1        1 MOL     -0.035146
    173 H82        -3.0410   -4.9660   -2.8850 hc        1 MOL      0.093769
    174 H83        -2.0830   -3.8710   -3.8840 hc        1 MOL      0.093769
    175 H84        -4.1710   -3.1190   -5.0900 hc        1 MOL      0.063903
    176 H85        -5.0760   -4.0750   -4.0800 hc        1 MOL      0.063903
    177 N15        -1.5700   -3.3260   -0.5070 n         1 MOL     -0.177432
    178 C54        -2.0600   -4.6880   -0.2460 c3        1 MOL     -0.023882
    179 H86        -1.4080   -5.1750    0.4790 h1        1 MOL      0.029239
    180 H87        -3.0740   -4.6410    0.1510 h1        1 MOL      0.029239
    181 H88        -2.0590   -5.2590   -1.1750 h1        1 MOL      0.029239
    182 H89        -1.0480   -2.8490    0.2200 hn        1 MOL      0.295279
    183 Ca1        -0.2300    0.8790   -1.3870 Ca        1 MOL      1.819747
    184 O25        -2.8160    1.1750   -1.5470 oh        1 MOL     -0.878058
    185 H90        -3.4870    0.7390   -1.0170 ho        1 MOL      0.415533
    186 H91        -3.3000    1.7880   -2.0940 ho        1 MOL      0.415533
    187 O26         1.7370   -0.0360   -2.8660 oh        1 MOL     -0.878058
    188 H92         2.5920   -0.0840   -2.4230 ho        1 MOL      0.415533
    189 H93         1.8730    0.6100   -3.5640 ho        1 MOL      0.415533
    190 O27        -1.3440    0.2960   -4.1840 oh        1 MOL     -0.878058
    191 H94        -1.2640   -0.5170   -4.6770 ho        1 MOL      0.415533
    192 H95        -1.8190    0.8880   -4.7680 ho        1 MOL      0.415533
@<TRIPOS>BOND
     1    1    2 1   
     2    1    4 1   
     3    1    5 1   
     4    1    6 1   
     5    2    3 2   
     6    2    7 1   
     7    7    8 1   
     8    7   15 1   
     9    8    9 1   
    10    8   11 1   
    11    8   16 1   
    12    9   10 2   
    13    9   19 1   
    14   11   12 1   
    15   11   17 1   
    16   11   18 1   
    17   12   13 1   
    18   12   14 1   
    19   19   20 1   
    20   19   28 1   
    21   20   21 1   
    22   20   23 1   
    23   20   29 1   
    24   21   22 2   
    25   21   41 1   
    26   23   24 1   
    27   23   30 1   
    28   23   31 1   
    29   24   25 1   
    30   24   32 1   
    31   24   33 1   
    32   25   26 1   
    33   25   34 1   
    34   25   35 1   
    35   26   27 1   
    36   26   36 1   
    37   26   37 1   
    38   27   38 1   
    39   27   39 1   
    40   27   40 1   
    41   41   42 1   
    42   41   49 1   
    43   42   43 1   
    44   42   45 1   
    45   42   50 1   
    46   43   44 2   
    47   43   53 1   
    48   45   46 1   
    49   45   51 1   
    50   45   52 1   
    51   46   47 1   
    52   46   48 1   
    53   53   54 1   
    54   53   57 1   
    55   54   55 1   
    56   54   58 1   
    57   54   59 1   
    58   55   56 2   
    59   55   60 1   
    60   60   61 1   
    61   60   68 1   
    62   61   62 1   
    63   61   64 1   
    64   61   69 1   
    65   62   63 2   
    66   62   72 1   
    67   64   65 1   
    68   64   70 1   
    69   64   71 1   
    70   65   66 1   
    71   65   67 1   
    72   72   73 1   
    73   72   76 1   
    74   73   74 1   
    75   73   77 1   
    76   73   78 1   
    77   74   75 2   
    78   74   79 1   
    79   79   80 1   
    80   79   86 1   
    81   80   81 1   
    82   80   83 1   
    83   80   87 1   
    84   81   82 2   
    85   81   93 1   
    86   83   84 1   
    87   83   85 1   
    88   83   88 1   
    89   84   90 1   
    90   84   91 1   
    91   84   92 1   
    92   85   89 1   
    93   93   94 1   
    94   93  101 1   
    95   94   95 1   
    96   94   97 1   
    97   94  102 1   
    98   95   96 2   
    99   95  112 1   
   100   97   98 1   
   101   97   99 1   
   102   97  103 1   
   103   98  100 1   
   104   98  104 1   
   105   98  105 1   
   106   99  106 1   
   107   99  107 1   
   108   99  108 1   
   109  100  109 1   
   110  100  110 1   
   111  100  111 1   
   112  112  113 1   
   113  112  119 1   
   114  113  114 1   
   115  113  116 1   
   116  113  120 1   
   117  114  115 2   
   118  114  126 1   
   119  116  117 1   
   120  116  118 1   
   121  116  121 1   
   122  117  123 1   
   123  117  124 1   
   124  117  125 1   
   125  118  122 1   
   126  126  127 1   
   127  126  133 1   
   128  127  128 1   
   129  127  130 1   
   130  127  134 1   
   131  128  129 2   
   132  128  140 1   
   133  130  131 1   
   134  130  132 1   
   135  130  135 1   
   136  131  137 1   
   137  131  138 1   
   138  131  139 1   
   139  132  136 1   
   140  140  141 1   
   141  140  149 1   
   142  141  142 1   
   143  141  144 1   
   144  141  150 1   
   145  142  143 2   
   146  142  162 1   
   147  144  145 1   
   148  144  151 1   
   149  144  152 1   
   150  145  146 1   
   151  145  153 1   
   152  145  154 1   
   153  146  147 1   
   154  146  155 1   
   155  146  156 1   
   156  147  148 1   
   157  147  157 1   
   158  147  158 1   
   159  148  159 1   
   160  148  160 1   
   161  148  161 1   
   162  162  163 1   
   163  162  171 1   
   164  163  164 1   
   165  163  166 1   
   166  163  172 1   
   167  164  165 2   
   168  164  177 1   
   169  166  167 1   
   170  166  173 1   
   171  166  174 1   
   172  167  168 1   
   173  167  175 1   
   174  167  176 1   
   175  168  169 1   
   176  168  170 1   
   177  177  178 1   
   178  177  182 1   
   179  178  179 1   
   180  178  180 1   
   181  178  181 1   
   182  184  185 1   
   183  184  186 1   
   184  187  188 1   
   185  187  189 1   
   186  190  191 1   
   187  190  192 1   
@<TRIPOS>SUBSTRUCTURE
     1 MOL         1 TEMP              0 ****  ****    0 ROOT
