@<TRIPOS>MOLECULE
MOL
  185   180     1     0     0
SMALL
resp


@<TRIPOS>ATOM
      1 C1         -4.1520   -2.6140    2.6500 c3        1 MOL     -0.353478
      2 C2         -4.9740   -2.4850    1.2990 c         1 MOL      0.752459
      3 O1         -4.7010   -1.5080    0.5020 o         1 MOL     -0.589965
      4 H1         -3.1130   -2.8520    2.4210 hc        1 MOL      0.083285
      5 H2         -4.1960   -1.6700    3.1940 hc        1 MOL      0.083285
      6 H3         -4.5800   -3.4070    3.2620 hc        1 MOL      0.083285
      7 N1         -6.0550   -3.1880    1.1670 n         1 MOL     -0.523135
      8 C3         -7.2330   -2.9930    0.2990 c3        1 MOL      0.114308
      9 C4         -7.9740   -1.6280    0.4490 c         1 MOL      0.481127
     10 O2         -8.7900   -1.2770   -0.3960 o         1 MOL     -0.516383
     11 C5         -6.9190   -3.5050   -1.0440 c3        1 MOL     -0.307941
     12 C6         -6.1510   -4.8360   -1.1680 c         1 MOL      0.732281
     13 O3         -6.1310   -5.7000   -0.2400 o         1 MOL     -0.660499
     14 O4         -5.3970   -5.0560   -2.1230 o         1 MOL     -0.660499
     15 H4         -6.1530   -3.8840    1.9000 hn        1 MOL      0.285963
     16 H5         -7.9730   -3.6820    0.7150 h1        1 MOL      0.053485
     17 H6         -6.3630   -2.7720   -1.6180 hc        1 MOL      0.095086
     18 H7         -7.8900   -3.6350   -1.5210 hc        1 MOL      0.095086
     19 N2         -7.6310   -0.7690    1.4090 n         1 MOL     -0.423420
     20 C7         -8.2270    0.4740    1.7230 c3        1 MOL      0.128382
     21 C8         -7.4690    1.6160    0.9240 c         1 MOL      0.435727
     22 O5         -7.9020    2.7880    0.9860 o         1 MOL     -0.568695
     23 C9         -8.3810    0.8120    3.2080 c3        1 MOL     -0.256420
     24 C10        -9.3950    0.0020    3.9940 c3        1 MOL      0.051719
     25 C11       -10.8740    0.1470    3.5490 c3        1 MOL      0.052072
     26 C12       -11.8970   -0.0320    4.7080 c3        1 MOL     -0.050172
     27 N3        -13.2610    0.3750    4.0310 n4        1 MOL     -0.281786
     28 H8         -6.8760   -1.0860    1.9970 hn        1 MOL      0.229954
     29 H9         -9.2340    0.5620    1.3100 h1        1 MOL      0.039503
     30 H10        -8.4970    1.8900    3.3750 hc        1 MOL      0.093182
     31 H11        -7.3880    0.5780    3.6140 hc        1 MOL      0.093182
     32 H12        -9.2990    0.2770    5.0430 hc        1 MOL      0.002555
     33 H13        -9.2030   -1.0670    4.0100 hc        1 MOL      0.002555
     34 H14       -11.0740   -0.4820    2.6870 hc        1 MOL      0.039065
     35 H15       -10.9270    1.1770    3.1640 hc        1 MOL      0.039065
     36 H16       -11.6680    0.5680    5.5790 hx        1 MOL      0.104946
     37 H17       -11.9410   -1.0860    4.9930 hx        1 MOL      0.104946
     38 H18       -13.9770    0.3450    4.7460 hn        1 MOL      0.256533
     39 H19       -13.3410    1.3070    3.6460 hn        1 MOL      0.256533
     40 H20       -13.5040   -0.3240    3.3450 hn        1 MOL      0.256533
     41 N4         -6.3990    1.2740    0.2110 n         1 MOL     -0.139816
     42 C13        -5.4820    2.1310   -0.4760 c3        1 MOL     -0.119630
     43 C14        -5.0440    1.5930   -1.8360 c         1 MOL      0.440682
     44 O6         -4.8650    0.3780   -1.9860 o         1 MOL     -0.449513
     45 C15        -4.3070    2.3200    0.4370 c3        1 MOL     -0.184931
     46 C16        -3.3550    3.3930    0.0160 c         1 MOL      0.903096
     47 O7         -2.3570    3.4620    0.7040 o         1 MOL     -0.788192
     48 O8         -3.6200    4.1820   -0.9100 o         1 MOL     -0.788192
     49 H21        -6.0180    0.3400    0.3020 hn        1 MOL      0.164543
     50 H22        -6.0380    3.0540   -0.6420 h1        1 MOL      0.076059
     51 H23        -3.8050    1.3540    0.6000 hc        1 MOL      0.072269
     52 H24        -4.6350    2.6750    1.4130 hc        1 MOL      0.072269
     53 N5         -4.6950    2.4180   -2.8070 n         1 MOL     -0.246743
     54 C17        -4.2810    2.0650   -4.1720 c3        1 MOL     -0.377172
     55 C18        -3.0670    1.1380   -4.4170 c         1 MOL      0.520797
     56 O9         -2.8670    0.7770   -5.5660 o         1 MOL     -0.529456
     57 H25        -4.8310    3.3700   -2.4910 hn        1 MOL      0.244369
     58 H26        -4.1830    2.9930   -4.7400 h1        1 MOL      0.162575
     59 H27        -5.1130    1.5500   -4.6380 h1        1 MOL      0.162575
     60 N6         -2.2410    0.8300   -3.4020 n         1 MOL     -0.178765
     61 C19        -1.0020    0.1180   -3.4880 c3        1 MOL     -0.109696
     62 C20        -1.1430   -1.3790   -3.7140 c         1 MOL      0.478288
     63 O10        -0.2060   -1.9110   -4.3300 o         1 MOL     -0.504454
     64 C21        -0.1230    0.4610   -2.2530 c3        1 MOL     -0.366167
     65 C22         0.1380    1.9720   -1.9940 c         1 MOL      0.781213
     66 N7          1.2740    2.4370   -2.3520 n         1 MOL     -0.705163
     67 O11        -0.7230    2.6900   -1.5090 o         1 MOL     -0.732472
     68 H28        -2.5160    1.2540   -2.5350 hn        1 MOL      0.245565
     69 H29        -0.4920    0.5110   -4.3700 h1        1 MOL      0.104290
     70 H30         0.8300   -0.0360   -2.4780 hc        1 MOL      0.158894
     71 H31        -0.6350    0.1320   -1.3550 hc        1 MOL      0.158894
     72 H32         2.0360    1.8380   -2.6350 hn        1 MOL      0.328564
     73 H33         1.4130    3.4330   -2.2070 hn        1 MOL      0.328564
     74 N8         -2.2020   -2.0720   -3.1940 n         1 MOL     -0.315151
     75 C23        -2.2390   -3.5760   -3.2820 c3        1 MOL     -0.077848
     76 C24        -1.0520   -4.2940   -2.6370 c         1 MOL      0.542903
     77 O12        -0.4860   -5.1980   -3.2920 o         1 MOL     -0.530381
     78 H34        -3.0080   -1.6080   -2.8220 hn        1 MOL      0.238767
     79 H35        -2.5320   -4.0210   -4.2340 h1        1 MOL      0.117326
     80 H36        -3.1130   -3.8810   -2.7050 h1        1 MOL      0.117326
     81 N9         -0.6260   -3.7900   -1.4530 n         1 MOL     -0.519994
     82 C25         0.5690   -4.1930   -0.7590 c3        1 MOL      0.328974
     83 C26         1.2090   -3.0290    0.0310 c         1 MOL      0.444279
     84 O13         0.5550   -2.0830    0.5080 o         1 MOL     -0.517463
     85 C27         0.3380   -5.4360    0.0910 c3        1 MOL     -0.223080
     86 C28         1.5700   -6.0300    0.7030 ca        1 MOL      0.163813
     87 C29         2.7660   -6.2190   -0.0700 ca        1 MOL     -0.276436
     88 C30         1.5890   -6.4290    2.0980 ca        1 MOL     -0.276436
     89 C31         3.8510   -6.9150    0.4770 ca        1 MOL     -0.115600
     90 C32         2.7370   -7.0280    2.6670 ca        1 MOL     -0.115600
     91 C33         3.8400   -7.3610    1.8490 ca        1 MOL      0.211970
     92 O14         4.9990   -7.9450    2.2680 oh        1 MOL     -0.472177
     93 H37        -1.2280   -3.2560   -0.8380 hn        1 MOL      0.250736
     94 H38         1.3270   -4.4440   -1.5000 h1        1 MOL      0.017465
     95 H39        -0.0420   -6.2080   -0.5710 hc        1 MOL      0.097646
     96 H40        -0.4240   -5.2910    0.8590 hc        1 MOL      0.097646
     97 H41         2.7210   -6.0240   -1.1290 ha        1 MOL      0.153748
     98 H42         0.7170   -6.1510    2.6670 ha        1 MOL      0.153748
     99 H43         4.6690   -7.1610   -0.1750 ha        1 MOL      0.118583
    100 H44         2.7630   -7.3500    3.6970 ha        1 MOL      0.118583
    101 H45         5.0220   -7.9480    3.2310 ho        1 MOL      0.371832
    102 N10         2.5500   -3.1610    0.1330 n         1 MOL     -0.457018
    103 C34         3.4100   -2.0450    0.6950 c3        1 MOL      0.010406
    104 C35         4.6080   -1.6550   -0.1980 c         1 MOL      0.477306
    105 O15         4.8540   -0.5130   -0.4390 o         1 MOL     -0.480293
    106 C36         3.8510   -2.5340    2.1410 c3        1 MOL      0.240899
    107 C37         2.7100   -2.8050    3.2110 c3        1 MOL     -0.134930
    108 C38         4.8700   -1.5550    2.8370 c3        1 MOL     -0.375845
    109 C39         3.1480   -3.4360    4.5310 c3        1 MOL     -0.118876
    110 H46         2.9460   -4.0520   -0.1450 hn        1 MOL      0.191624
    111 H47         2.7790   -1.1950    0.9220 h1        1 MOL      0.087744
    112 H48         4.3740   -3.4890    2.1080 hc        1 MOL     -0.030777
    113 H49         1.9880   -3.4700    2.7290 hc        1 MOL      0.078744
    114 H50         2.2150   -1.8620    3.4440 hc        1 MOL      0.078744
    115 H51         4.3960   -0.7260    3.3570 hc        1 MOL      0.099756
    116 H52         5.5140   -2.0380    3.5670 hc        1 MOL      0.099756
    117 H53         5.5560   -1.0860    2.1410 hc        1 MOL      0.099756
    118 H54         3.5170   -4.4240    4.2520 hc        1 MOL      0.025074
    119 H55         3.8880   -2.9000    5.1240 hc        1 MOL      0.025074
    120 H56         2.3030   -3.5830    5.2030 hc        1 MOL      0.025074
    121 N11         5.2910   -2.6080   -0.7950 n         1 MOL     -0.271259
    122 C40         6.4450   -2.4490   -1.7100 c3        1 MOL     -0.054490
    123 C41         7.6480   -1.7580   -1.2190 c         1 MOL      0.238268
    124 O16         8.3950   -1.1860   -2.0360 o         1 MOL     -0.469841
    125 C42         6.8940   -3.8510   -2.1130 c3        1 MOL      0.209361
    126 O17         5.8900   -4.7940   -2.2820 oh        1 MOL     -0.537013
    127 H57         5.0550   -3.5880   -0.6810 hn        1 MOL      0.166720
    128 H58         6.1040   -1.9460   -2.6080 h1        1 MOL      0.133690
    129 H59         7.7500   -4.2880   -1.6080 h1        1 MOL      0.044230
    130 H60         7.1410   -3.7140   -3.1650 h1        1 MOL      0.044230
    131 H61         5.1210   -4.3510   -2.6490 ho        1 MOL      0.384492
    132 N12         7.8120   -1.6670    0.1010 n         1 MOL     -0.122218
    133 C43         8.8930   -1.0010    0.8330 c3        1 MOL      0.215685
    134 C44         8.9700    0.4690    0.4540 c         1 MOL      0.424886
    135 O18        10.0840    0.9500    0.3150 o         1 MOL     -0.528519
    136 C45        10.1140   -1.8520    0.7750 c3        1 MOL     -0.260164
    137 H62         7.0790   -2.1450    0.6220 hn        1 MOL      0.115535
    138 H63         8.5890   -0.9650    1.8730 h1        1 MOL      0.029867
    139 H64        10.5370   -2.0570   -0.2050 hc        1 MOL      0.073011
    140 H65        10.8900   -1.4380    1.4160 hc        1 MOL      0.073011
    141 H66         9.8600   -2.8260    1.1940 hc        1 MOL      0.073011
    142 N13         7.8290    1.1020    0.3050 n         1 MOL     -0.240599
    143 C46         7.6270    2.5020    0.0170 c3        1 MOL      0.209787
    144 C47         6.4870    3.2250    0.8100 c         1 MOL      0.389404
    145 O19         5.5450    2.6050    1.2680 o         1 MOL     -0.425179
    146 C48         7.2710    2.5750   -1.4750 c3        1 MOL     -0.294127
    147 H67         7.0230    0.5580    0.5770 hn        1 MOL      0.069906
    148 H68         8.5260    3.0620    0.2550 h1        1 MOL      0.010279
    149 H69         7.0640    3.5760   -1.8580 hc        1 MOL      0.094049
    150 H70         8.0950    2.1330   -2.0330 hc        1 MOL      0.094049
    151 H71         6.4000    1.9610   -1.7110 hc        1 MOL      0.094049
    152 N14         6.4910    4.5720    0.8860 n         1 MOL     -0.354197
    153 C49         5.5710    5.3450    1.8340 c3        1 MOL     -0.224801
    154 C50         5.8670    5.1250    3.3680 c         1 MOL      0.483265
    155 O20         4.9750    5.2530    4.1980 o         1 MOL     -0.485748
    156 C51         4.1080    5.2130    1.4250 c3        1 MOL      0.267787
    157 C52         3.6970    5.1490   -0.0440 c3        1 MOL     -0.328478
    158 C53         2.2200    5.3300   -0.2820 c         1 MOL      0.734056
    159 O21         1.4320    5.7290    0.6080 o         1 MOL     -0.716549
    160 O22         1.7470    5.0360   -1.4200 o         1 MOL     -0.716549
    161 H72         7.3360    4.9290    0.4670 hn        1 MOL      0.252658
    162 H73         5.7750    6.3870    1.6330 h1        1 MOL      0.100771
    163 H74         3.5940    6.0260    1.9500 hc        1 MOL      0.012964
    164 H75         3.6540    4.3090    1.8440 hc        1 MOL      0.012964
    165 H76         3.8820    4.1080   -0.3130 hc        1 MOL      0.072984
    166 H77         4.2920    5.7920   -0.6790 hc        1 MOL      0.072984
    167 N15         7.0430    4.5510    3.6980 n         1 MOL     -0.302762
    168 C54         7.1970    3.9010    4.9690 c3        1 MOL     -0.124193
    169 H78         6.2660    3.4010    5.2360 h1        1 MOL      0.082447
    170 H79         7.9990    3.1650    4.9070 h1        1 MOL      0.082447
    171 H80         7.4410    4.6430    5.7300 h1        1 MOL      0.082447
    172 H81         7.7160    4.3430    2.9690 hn        1 MOL      0.226908
    173 Ca1        -0.8570    5.2140   -0.7430 Ca        1 MOL      1.717717
    174 O23        -2.8120    7.2200   -1.2080 oh        1 MOL     -0.794911
    175 H82        -2.7130    8.1000   -1.5750 ho        1 MOL      0.395270
    176 H83        -3.5380    7.3070   -0.5780 ho        1 MOL      0.395270
    177 O24         0.1700    7.6820   -1.4210 oh        1 MOL     -0.794911
    178 H84         0.2800    7.7590   -2.3680 ho        1 MOL      0.395270
    179 H85         0.0550    8.5810   -1.1160 ho        1 MOL      0.395270
    180 O25        -1.6550    6.3700    1.4950 oh        1 MOL     -0.794911
    181 H86        -2.5750    6.5350    1.7150 ho        1 MOL      0.395270
    182 H87        -1.1930    7.1550    1.7770 ho        1 MOL      0.395270
    183 O26        -0.9610    4.9500   -3.3720 oh        1 MOL     -0.794911
    184 H88        -1.4240    5.5550   -3.9420 ho        1 MOL      0.395270
    185 H89        -0.5850    4.2950   -3.9620 ho        1 MOL      0.395270
@<TRIPOS>BOND
     1    1    2 1   
     2    1    4 1   
     3    1    5 1   
     4    1    6 1   
     5    2    3 2   
     6    2    7 1   
     7    7    8 1   
     8    7   15 1   
     9    8    9 1   
    10    8   11 1   
    11    8   16 1   
    12    9   10 2   
    13    9   19 1   
    14   11   12 1   
    15   11   17 1   
    16   11   18 1   
    17   12   13 1   
    18   12   14 1   
    19   19   20 1   
    20   19   28 1   
    21   20   21 1   
    22   20   23 1   
    23   20   29 1   
    24   21   22 2   
    25   21   41 1   
    26   23   24 1   
    27   23   30 1   
    28   23   31 1   
    29   24   25 1   
    30   24   32 1   
    31   24   33 1   
    32   25   26 1   
    33   25   34 1   
    34   25   35 1   
    35   26   27 1   
    36   26   36 1   
    37   26   37 1   
    38   27   38 1   
    39   27   39 1   
    40   27   40 1   
    41   41   42 1   
    42   41   49 1   
    43   42   43 1   
    44   42   45 1   
    45   42   50 1   
    46   43   44 2   
    47   43   53 1   
    48   45   46 1   
    49   45   51 1   
    50   45   52 1   
    51   46   47 1   
    52   46   48 1   
    53   53   54 1   
    54   53   57 1   
    55   54   55 1   
    56   54   58 1   
    57   54   59 1   
    58   55   56 2   
    59   55   60 1   
    60   60   61 1   
    61   60   68 1   
    62   61   62 1   
    63   61   64 1   
    64   61   69 1   
    65   62   63 2   
    66   62   74 1   
    67   64   65 1   
    68   64   70 1   
    69   64   71 1   
    70   65   66 1   
    71   65   67 2   
    72   66   72 1   
    73   66   73 1   
    74   74   75 1   
    75   74   78 1   
    76   75   76 1   
    77   75   79 1   
    78   75   80 1   
    79   76   77 2   
    80   76   81 1   
    81   81   82 1   
    82   81   93 1   
    83   82   83 1   
    84   82   85 1   
    85   82   94 1   
    86   83   84 2   
    87   83  102 1   
    88   85   86 1   
    89   85   95 1   
    90   85   96 1   
    91   86   87 ar  
    92   86   88 ar  
    93   87   89 ar  
    94   87   97 1   
    95   88   90 ar  
    96   88   98 1   
    97   89   91 ar  
    98   89   99 1   
    99   90   91 ar  
   100   90  100 1   
   101   91   92 1   
   102   92  101 1   
   103  102  103 1   
   104  102  110 1   
   105  103  104 1   
   106  103  106 1   
   107  103  111 1   
   108  104  105 2   
   109  104  121 1   
   110  106  107 1   
   111  106  108 1   
   112  106  112 1   
   113  107  109 1   
   114  107  113 1   
   115  107  114 1   
   116  108  115 1   
   117  108  116 1   
   118  108  117 1   
   119  109  118 1   
   120  109  119 1   
   121  109  120 1   
   122  121  122 1   
   123  121  127 1   
   124  122  123 1   
   125  122  125 1   
   126  122  128 1   
   127  123  124 2   
   128  123  132 1   
   129  125  126 1   
   130  125  129 1   
   131  125  130 1   
   132  126  131 1   
   133  132  133 1   
   134  132  137 1   
   135  133  134 1   
   136  133  136 1   
   137  133  138 1   
   138  134  135 2   
   139  134  142 1   
   140  136  139 1   
   141  136  140 1   
   142  136  141 1   
   143  142  143 1   
   144  142  147 1   
   145  143  144 1   
   146  143  146 1   
   147  143  148 1   
   148  144  145 2   
   149  144  152 1   
   150  146  149 1   
   151  146  150 1   
   152  146  151 1   
   153  152  153 1   
   154  152  161 1   
   155  153  154 1   
   156  153  156 1   
   157  153  162 1   
   158  154  155 2   
   159  154  167 1   
   160  156  157 1   
   161  156  163 1   
   162  156  164 1   
   163  157  158 1   
   164  157  165 1   
   165  157  166 1   
   166  158  159 1   
   167  158  160 1   
   168  167  168 1   
   169  167  172 1   
   170  168  169 1   
   171  168  170 1   
   172  168  171 1   
   173  174  175 1   
   174  174  176 1   
   175  177  178 1   
   176  177  179 1   
   177  180  181 1   
   178  180  182 1   
   179  183  184 1   
   180  183  185 1   
@<TRIPOS>SUBSTRUCTURE
     1 MOL         1 TEMP              0 ****  ****    0 ROOT
