@<TRIPOS>MOLECULE
MOL
  185   180     1     0     0
SMALL
resp


@<TRIPOS>ATOM
      1 C1         -6.0030    1.6730   -1.6520 c3        1 MOL     -0.248697
      2 C2         -7.0290    1.1530   -0.6340 c         1 MOL      0.721900
      3 O1         -6.8340    1.1160    0.5380 o         1 MOL     -0.516274
      4 H1         -5.0310    1.7740   -1.1680 hc        1 MOL      0.056548
      5 H2         -5.9240    0.9700   -2.4810 hc        1 MOL      0.056548
      6 H3         -6.3240    2.6450   -2.0280 hc        1 MOL      0.056548
      7 N1         -8.2320    0.7750   -1.1330 n         1 MOL     -0.478299
      8 C3         -9.3590    0.1680   -0.4120 c3        1 MOL      0.099695
      9 C4         -8.8750   -0.9320    0.5480 c         1 MOL      0.414987
     10 O2         -9.4810   -1.1400    1.6670 o         1 MOL     -0.512780
     11 C5        -10.2890    1.0770    0.3680 c3        1 MOL     -0.352317
     12 C6        -10.7460    2.3500   -0.4120 c         1 MOL      0.712847
     13 O3        -11.1460    3.3470    0.2170 o         1 MOL     -0.639187
     14 O4        -10.7090    2.4730   -1.6630 o         1 MOL     -0.639187
     15 H4         -8.3460    0.8280   -2.1290 hn        1 MOL      0.262541
     16 H5         -9.9070   -0.1960   -1.2800 h1        1 MOL      0.035827
     17 H6         -9.7450    1.4490    1.2310 hc        1 MOL      0.122754
     18 H7        -11.1380    0.5170    0.7710 hc        1 MOL      0.122754
     19 N2         -7.8700   -1.6970    0.1680 n         1 MOL     -0.210064
     20 C7         -7.2810   -2.8030    0.9860 c3        1 MOL      0.059346
     21 C8         -5.7540   -2.7620    1.1390 c         1 MOL      0.459589
     22 O5         -5.1810   -3.7370    1.4980 o         1 MOL     -0.514232
     23 C9         -7.7670   -4.0760    0.3970 c3        1 MOL     -0.266558
     24 C10        -7.2420   -4.4480   -1.0110 c3        1 MOL     -0.031012
     25 C11        -7.6870   -5.7730   -1.5880 c3        1 MOL      0.047376
     26 C12        -9.1250   -5.8390   -1.9800 c3        1 MOL      0.050937
     27 N3         -9.5220   -7.2730   -2.2120 n4        1 MOL     -0.183350
     28 H8         -7.6390   -1.6610   -0.8180 hn        1 MOL      0.138612
     29 H9         -7.6770   -2.6910    1.9990 h1        1 MOL      0.117394
     30 H10        -8.8460   -4.0680    0.3230 hc        1 MOL      0.093468
     31 H11        -7.4380   -4.8940    1.0480 hc        1 MOL      0.093468
     32 H12        -6.1630   -4.5230   -0.8310 hc        1 MOL      0.026216
     33 H13        -7.4270   -3.6860   -1.7670 hc        1 MOL      0.026216
     34 H14        -7.4560   -6.5710   -0.8750 hc        1 MOL      0.022488
     35 H15        -7.1660   -5.9120   -2.5330 hc        1 MOL      0.022488
     36 H16        -9.1490   -5.2760   -2.9170 hx        1 MOL      0.059641
     37 H17        -9.8340   -5.3500   -1.3160 hx        1 MOL      0.059641
     38 H18       -10.0110   -7.4460   -3.0820 hn        1 MOL      0.217654
     39 H19        -8.7040   -7.8540   -2.0940 hn        1 MOL      0.217654
     40 H20       -10.2200   -7.5150   -1.5230 hn        1 MOL      0.217654
     41 N4         -5.1200   -1.5810    0.9130 n         1 MOL     -0.220057
     42 C13        -3.6380   -1.4340    1.0430 c3        1 MOL     -0.101083
     43 C14        -3.1230   -1.1360    2.4800 c         1 MOL      0.463034
     44 O6         -3.0990   -0.0110    2.9390 o         1 MOL     -0.424729
     45 C15        -3.2050   -0.3470    0.0200 c3        1 MOL      0.067006
     46 C16        -1.6940   -0.2530   -0.1390 c         1 MOL      0.535332
     47 O7         -1.1810    0.4410   -1.0670 o         1 MOL     -0.715105
     48 O8         -0.9230   -0.8470    0.6370 o         1 MOL     -0.715105
     49 H21        -5.6860   -0.8470    0.5200 hn        1 MOL      0.092286
     50 H22        -3.0940   -2.3180    0.6930 h1        1 MOL      0.071079
     51 H23        -3.5370    0.6240    0.3800 hc        1 MOL      0.022849
     52 H24        -3.5320   -0.5570   -0.9890 hc        1 MOL      0.022849
     53 N5         -2.6410   -2.2120    3.1900 n         1 MOL     -0.183246
     54 C17        -2.2390   -2.0780    4.5250 c3        1 MOL     -0.284308
     55 C18        -1.0830   -1.1260    4.7130 c         1 MOL      0.474677
     56 O9         -0.8500   -0.6160    5.7970 o         1 MOL     -0.527935
     57 H25        -2.7950   -3.1420    2.8330 hn        1 MOL      0.246028
     58 H26        -1.9500   -3.0650    4.8920 h1        1 MOL      0.142506
     59 H27        -3.0120   -1.6510    5.1630 h1        1 MOL      0.142506
     60 N6         -0.4170   -0.7190    3.6040 n         1 MOL     -0.159635
     61 C19         0.6840    0.2610    3.7120 c3        1 MOL     -0.016319
     62 C20         0.3220    1.5670    3.0330 c         1 MOL      0.297975
     63 O10         1.0720    2.5620    2.9940 o         1 MOL     -0.449245
     64 C21         1.9630   -0.5180    3.3250 c3        1 MOL     -0.048727
     65 C22         1.8530   -1.3290    2.1100 c         1 MOL      0.122715
     66 N7          1.5760   -2.6130    2.2830 n         1 MOL     -0.556164
     67 O11         2.0340   -0.8980    0.9980 o         1 MOL     -0.458624
     68 H28        -0.5690   -1.2030    2.7320 hn        1 MOL      0.144414
     69 H29         0.7650    0.5520    4.7620 h1        1 MOL      0.120749
     70 H30         2.2720   -1.1370    4.1630 hc        1 MOL      0.087038
     71 H31         2.8200    0.1490    3.2190 hc        1 MOL      0.087038
     72 H32         1.3510   -2.9140    3.2170 hn        1 MOL      0.320927
     73 H33         1.5590   -3.1180    1.4050 hn        1 MOL      0.320927
     74 N8         -0.9170    1.7100    2.5960 n         1 MOL      0.108343
     75 C23        -1.4860    3.0460    2.3000 c3        1 MOL     -0.101583
     76 C24        -0.8370    3.8220    1.1820 c         1 MOL      0.483487
     77 O12        -0.6770    5.0700    1.3020 o         1 MOL     -0.481391
     78 H34        -1.5310    0.9110    2.6790 hn        1 MOL      0.048425
     79 H35        -1.4610    3.5770    3.2540 h1        1 MOL      0.082028
     80 H36        -2.5420    2.8260    2.1470 h1        1 MOL      0.082028
     81 N9         -0.2980    3.2230    0.0840 n         1 MOL     -0.524713
     82 C25         0.7260    3.7620   -0.9030 c3        1 MOL      0.774565
     83 C26         1.8530    2.7460   -1.2760 c         1 MOL     -0.022100
     84 O13         1.7180    1.5100   -0.9850 o         1 MOL     -0.365466
     85 C27         0.0590    4.2830   -2.2320 c3        1 MOL     -0.191842
     86 C28        -0.8540    5.5630   -2.1520 ca        1 MOL      0.074901
     87 C29        -0.3950    6.7330   -1.5560 ca        1 MOL     -0.228007
     88 C30        -2.2480    5.5200   -2.5310 ca        1 MOL     -0.228007
     89 C31        -1.1910    7.8530   -1.3230 ca        1 MOL     -0.195406
     90 C32        -3.0370    6.6130   -2.2280 ca        1 MOL     -0.195406
     91 C33        -2.5820    7.7800   -1.5960 ca        1 MOL      0.307929
     92 O14        -3.4070    8.8750   -1.3490 oh        1 MOL     -0.486457
     93 H37        -0.4800    2.2350   -0.0210 hn        1 MOL      0.239935
     94 H38         1.2350    4.6480   -0.5440 h1        1 MOL     -0.093071
     95 H39        -0.6240    3.4890   -2.5500 hc        1 MOL      0.021861
     96 H40         0.8270    4.4770   -2.9940 hc        1 MOL      0.021861
     97 H41         0.6620    6.8350   -1.3560 ha        1 MOL      0.142384
     98 H42        -2.6510    4.5670   -2.8350 ha        1 MOL      0.142384
     99 H43        -0.7560    8.6970   -0.8200 ha        1 MOL      0.146301
    100 H44        -4.0930    6.4380   -2.3870 ha        1 MOL      0.146301
    101 H45        -4.3260    8.7450   -1.6040 ho        1 MOL      0.363084
    102 N10         2.8660    3.1760   -2.0050 n         1 MOL     -0.152822
    103 C34         4.0510    2.3480   -2.0750 c3        1 MOL      0.039479
    104 C35         4.5060    1.9610   -0.6580 c         1 MOL      0.153008
    105 O15         4.9200    0.8450   -0.3430 o         1 MOL     -0.413237
    106 C36         5.1140    2.8800   -2.9760 c3        1 MOL      0.121511
    107 C37         4.5470    3.2340   -4.3880 c3        1 MOL     -0.200131
    108 C38         6.2290    1.8650   -3.2270 c3        1 MOL     -0.361894
    109 C39         3.8400    2.1570   -5.2520 c3        1 MOL      0.004492
    110 H46         2.9620    4.1380   -2.3010 hn        1 MOL      0.238181
    111 H47         3.6750    1.4080   -2.4690 h1        1 MOL      0.058568
    112 H48         5.5150    3.7520   -2.4700 hc        1 MOL     -0.002342
    113 H49         5.3250    3.6150   -5.0550 hc        1 MOL      0.056357
    114 H50         3.8830    4.0440   -4.0910 hc        1 MOL      0.056357
    115 H51         6.8720    2.3690   -3.9410 hc        1 MOL      0.114997
    116 H52         6.8440    1.7340   -2.3400 hc        1 MOL      0.114997
    117 H53         5.8450    0.9520   -3.6900 hc        1 MOL      0.114997
    118 H54         2.9100    1.8740   -4.7400 hc        1 MOL      0.010804
    119 H55         3.5050    2.5390   -6.2160 hc        1 MOL      0.010804
    120 H56         4.5080    1.3120   -5.4120 hc        1 MOL      0.010804
    121 N11         4.4040    2.8850    0.2440 n         1 MOL      0.006761
    122 C40         4.4650    2.6130    1.6940 c3        1 MOL     -0.134259
    123 C41         5.8130    2.0460    2.1810 c         1 MOL      0.196507
    124 O16         5.8110    1.2820    3.1230 o         1 MOL     -0.439822
    125 C42         4.0390    3.7970    2.5890 c3        1 MOL      0.256396
    126 O17         2.7870    4.2480    2.0630 oh        1 MOL     -0.591013
    127 H57         4.1550    3.8070   -0.0930 hn        1 MOL      0.162614
    128 H58         3.7580    1.8260    1.9380 h1        1 MOL      0.161283
    129 H59         4.7320    4.6300    2.4620 h1        1 MOL      0.029339
    130 H60         4.0280    3.5780    3.6580 h1        1 MOL      0.029339
    131 H61         2.1140    3.6250    2.3360 ho        1 MOL      0.299175
    132 N12         6.8240    2.3590    1.4040 n         1 MOL     -0.102630
    133 C43         8.1380    1.6700    1.4860 c3        1 MOL      0.060484
    134 C44         8.0220    0.1420    1.5610 c         1 MOL      0.408904
    135 O18         9.0450   -0.4610    1.8880 o         1 MOL     -0.519688
    136 C45         8.9500    2.2930    2.6460 c3        1 MOL     -0.241289
    137 H62         6.6530    3.1790    0.8480 hn        1 MOL      0.172008
    138 H63         8.6710    1.9930    0.5850 h1        1 MOL      0.073820
    139 H64         8.3910    2.2780    3.5810 hc        1 MOL      0.078413
    140 H65         9.8970    1.7740    2.8150 hc        1 MOL      0.078413
    141 H66         9.0900    3.3730    2.5900 hc        1 MOL      0.078413
    142 N13         6.9210   -0.5070    1.2590 n         1 MOL     -0.171800
    143 C46         6.6630   -1.8580    1.6060 c3        1 MOL      0.180361
    144 C47         6.5770   -2.7350    0.3540 c         1 MOL      0.552075
    145 O19         6.6890   -2.3900   -0.8180 o         1 MOL     -0.594617
    146 C48         5.4110   -1.8940    2.4200 c3        1 MOL     -0.096311
    147 H67         6.1660   -0.0200    0.7890 hn        1 MOL      0.038342
    148 H68         7.4990   -2.2850    2.1700 h1        1 MOL      0.033216
    149 H69         5.1020   -2.8740    2.7960 hc        1 MOL      0.039543
    150 H70         5.5630   -1.2440    3.2820 hc        1 MOL      0.039543
    151 H71         4.5310   -1.5080    1.8910 hc        1 MOL      0.039543
    152 N14         6.3150   -4.0620    0.5290 n         1 MOL     -0.568130
    153 C49         5.9370   -5.0820   -0.5100 c3        1 MOL      0.036306
    154 C50         6.9390   -5.3710   -1.6850 c         1 MOL      0.511553
    155 O20         7.4860   -6.4770   -1.7870 o         1 MOL     -0.574230
    156 C51         4.5350   -4.8660   -1.0760 c3        1 MOL      0.097928
    157 C52         3.4550   -4.5610   -0.0470 c3        1 MOL      0.091404
    158 C53         2.0380   -4.5930   -0.6470 c         1 MOL      0.598873
    159 O21         1.5560   -5.6030   -1.1760 o         1 MOL     -0.670778
    160 O22         1.3470   -3.5490   -0.5680 o         1 MOL     -0.670778
    161 H72         6.1370   -4.5150    1.4130 hn        1 MOL      0.323148
    162 H73         5.9990   -6.0370    0.0250 h1        1 MOL      0.069719
    163 H74         4.1970   -5.7120   -1.6880 hc        1 MOL     -0.047040
    164 H75         4.5430   -3.9600   -1.6840 hc        1 MOL     -0.047040
    165 H76         3.6620   -3.5340    0.2610 hc        1 MOL     -0.047666
    166 H77         3.5510   -5.3000    0.7500 hc        1 MOL     -0.047666
    167 N15         6.9620   -4.5920   -2.7100 n         1 MOL     -0.253673
    168 C54         7.3840   -4.8950   -4.1320 c3        1 MOL     -0.201808
    169 H78         6.5070   -4.8950   -4.7790 h1        1 MOL      0.103190
    170 H79         8.0860   -4.1350   -4.4730 h1        1 MOL      0.103190
    171 H80         7.8610   -5.8740   -4.1690 h1        1 MOL      0.103190
    172 H81         6.4990   -3.7150   -2.5080 hn        1 MOL      0.261843
    173 Ca1         0.9150   -1.0900   -1.4680 Ca        1 MOL      1.705698
    174 O23        -1.2030   -2.2550   -2.5220 oh        1 MOL     -0.804134
    175 H82        -1.3110   -2.6920   -3.3640 ho        1 MOL      0.405807
    176 H83        -1.8110   -2.7140   -1.9300 ho        1 MOL      0.405807
    177 O24         3.5870   -1.3510   -1.8710 oh        1 MOL     -0.804134
    178 H84         4.2230   -0.9540   -1.2640 ho        1 MOL      0.405807
    179 H85         4.0810   -2.0560   -2.3010 ho        1 MOL      0.405807
    180 O25         0.5280    0.0590   -3.7490 oh        1 MOL     -0.804134
    181 H86        -0.1650    0.6460   -4.0380 ho        1 MOL      0.405807
    182 H87         0.7190   -0.4840   -4.5030 ho        1 MOL      0.405807
    183 O26         1.8820   -2.6540   -3.7150 oh        1 MOL     -0.804134
    184 H88         1.5250   -3.5270   -3.8810 ho        1 MOL      0.405807
    185 H89         2.3160   -2.4060   -4.5320 ho        1 MOL      0.405807
@<TRIPOS>BOND
     1    1    2 1   
     2    1    4 1   
     3    1    5 1   
     4    1    6 1   
     5    2    3 2   
     6    2    7 1   
     7    7    8 1   
     8    7   15 1   
     9    8    9 1   
    10    8   11 1   
    11    8   16 1   
    12    9   10 2   
    13    9   19 1   
    14   11   12 1   
    15   11   17 1   
    16   11   18 1   
    17   12   13 1   
    18   12   14 1   
    19   19   20 1   
    20   19   28 1   
    21   20   21 1   
    22   20   23 1   
    23   20   29 1   
    24   21   22 2   
    25   21   41 1   
    26   23   24 1   
    27   23   30 1   
    28   23   31 1   
    29   24   25 1   
    30   24   32 1   
    31   24   33 1   
    32   25   26 1   
    33   25   34 1   
    34   25   35 1   
    35   26   27 1   
    36   26   36 1   
    37   26   37 1   
    38   27   38 1   
    39   27   39 1   
    40   27   40 1   
    41   41   42 1   
    42   41   49 1   
    43   42   43 1   
    44   42   45 1   
    45   42   50 1   
    46   43   44 2   
    47   43   53 1   
    48   45   46 1   
    49   45   51 1   
    50   45   52 1   
    51   46   47 1   
    52   46   48 1   
    53   53   54 1   
    54   53   57 1   
    55   54   55 1   
    56   54   58 1   
    57   54   59 1   
    58   55   56 2   
    59   55   60 1   
    60   60   61 1   
    61   60   68 1   
    62   61   62 1   
    63   61   64 1   
    64   61   69 1   
    65   62   63 2   
    66   62   74 1   
    67   64   65 1   
    68   64   70 1   
    69   64   71 1   
    70   65   66 1   
    71   65   67 2   
    72   66   72 1   
    73   66   73 1   
    74   74   75 1   
    75   74   78 1   
    76   75   76 1   
    77   75   79 1   
    78   75   80 1   
    79   76   77 2   
    80   76   81 1   
    81   81   82 1   
    82   81   93 1   
    83   82   83 1   
    84   82   85 1   
    85   82   94 1   
    86   83   84 2   
    87   83  102 1   
    88   85   86 1   
    89   85   95 1   
    90   85   96 1   
    91   86   87 ar  
    92   86   88 ar  
    93   87   89 ar  
    94   87   97 1   
    95   88   90 ar  
    96   88   98 1   
    97   89   91 ar  
    98   89   99 1   
    99   90   91 ar  
   100   90  100 1   
   101   91   92 1   
   102   92  101 1   
   103  102  103 1   
   104  102  110 1   
   105  103  104 1   
   106  103  106 1   
   107  103  111 1   
   108  104  105 2   
   109  104  121 1   
   110  106  107 1   
   111  106  108 1   
   112  106  112 1   
   113  107  109 1   
   114  107  113 1   
   115  107  114 1   
   116  108  115 1   
   117  108  116 1   
   118  108  117 1   
   119  109  118 1   
   120  109  119 1   
   121  109  120 1   
   122  121  122 1   
   123  121  127 1   
   124  122  123 1   
   125  122  125 1   
   126  122  128 1   
   127  123  124 2   
   128  123  132 1   
   129  125  126 1   
   130  125  129 1   
   131  125  130 1   
   132  126  131 1   
   133  132  133 1   
   134  132  137 1   
   135  133  134 1   
   136  133  136 1   
   137  133  138 1   
   138  134  135 2   
   139  134  142 1   
   140  136  139 1   
   141  136  140 1   
   142  136  141 1   
   143  142  143 1   
   144  142  147 1   
   145  143  144 1   
   146  143  146 1   
   147  143  148 1   
   148  144  145 2   
   149  144  152 1   
   150  146  149 1   
   151  146  150 1   
   152  146  151 1   
   153  152  153 1   
   154  152  161 1   
   155  153  154 1   
   156  153  156 1   
   157  153  162 1   
   158  154  155 2   
   159  154  167 1   
   160  156  157 1   
   161  156  163 1   
   162  156  164 1   
   163  157  158 1   
   164  157  165 1   
   165  157  166 1   
   166  158  159 1   
   167  158  160 1   
   168  167  168 1   
   169  167  172 1   
   170  168  169 1   
   171  168  170 1   
   172  168  171 1   
   173  174  175 1   
   174  174  176 1   
   175  177  178 1   
   176  177  179 1   
   177  180  181 1   
   178  180  182 1   
   179  183  184 1   
   180  183  185 1   
@<TRIPOS>SUBSTRUCTURE
     1 MOL         1 TEMP              0 ****  ****    0 ROOT
