@<TRIPOS>MOLECULE
MOL
  195   189     1     0     0
SMALL
resp


@<TRIPOS>ATOM
      1 C1          4.4220   -1.6750   -3.0220 c3        1 MOL     -0.355312
      2 C2          3.6590   -2.1820   -1.7780 c         1 MOL      0.750433
      3 O1          2.8720   -1.3880   -1.2450 o         1 MOL     -0.538380
      4 H1          4.9270   -2.5130   -3.5050 hc        1 MOL      0.078660
      5 H2          3.7180   -1.2240   -3.7220 hc        1 MOL      0.078660
      6 H3          5.1610   -0.9330   -2.7190 hc        1 MOL      0.078660
      7 N1          3.7740   -3.4710   -1.2990 n         1 MOL     -0.539382
      8 C3          2.9200   -4.0880   -0.2480 c3        1 MOL     -0.016068
      9 C4          1.3680   -3.9590   -0.6150 c         1 MOL      0.723414
     10 O2          0.6050   -3.4340    0.1780 o         1 MOL     -0.535291
     11 C5          3.2870   -3.7410    1.1820 c3        1 MOL     -0.604988
     12 C6          4.6770   -4.0230    1.6510 c         1 MOL      0.815952
     13 O3          5.5490   -4.6500    0.9950 o         1 MOL     -0.688489
     14 O4          5.0180   -3.5200    2.7320 o         1 MOL     -0.688489
     15 H4          4.4380   -4.0680   -1.7640 hn        1 MOL      0.228728
     16 H5          3.1430   -5.1560   -0.3240 h1        1 MOL      0.074798
     17 H6          2.6120   -4.3260    1.8050 hc        1 MOL      0.214125
     18 H7          3.1300   -2.6790    1.3520 hc        1 MOL      0.214125
     19 N2          0.9750   -4.3370   -1.8430 n         1 MOL     -0.576950
     20 C7         -0.4300   -4.3500   -2.2210 c3        1 MOL     -0.022215
     21 C8         -0.9960   -5.8090   -2.1820 c         1 MOL      0.640291
     22 O5         -0.2760   -6.7450   -2.3550 o         1 MOL     -0.615033
     23 C9         -0.7140   -3.7240   -3.5500 c3        1 MOL      0.045386
     24 C10        -0.2480   -4.5340   -4.7960 c3        1 MOL      0.076457
     25 C11        -0.1260   -2.3160   -3.5570 c3        1 MOL     -0.168877
     26 C12        -1.1210   -4.3720   -6.0730 c3        1 MOL     -0.091695
     27 H8          1.6890   -4.7910   -2.3970 hn        1 MOL      0.303095
     28 H9         -1.0340   -3.7590   -1.5220 h1        1 MOL      0.135449
     29 H10        -1.8020   -3.5940   -3.6630 hc        1 MOL      0.076329
     30 H11        -0.0840   -5.6010   -4.6490 hc        1 MOL     -0.020773
     31 H12         0.7140   -4.1780   -5.1520 hc        1 MOL     -0.020773
     32 H13        -0.2600   -1.8700   -4.5490 hc        1 MOL      0.034025
     33 H14        -0.6550   -1.6100   -2.9200 hc        1 MOL      0.034025
     34 H15         0.9340   -2.2920   -3.3130 hc        1 MOL      0.034025
     35 H16        -2.0390   -4.9190   -5.8710 hc        1 MOL      0.010765
     36 H17        -1.4700   -3.3620   -6.3080 hc        1 MOL      0.010765
     37 H18        -0.6630   -4.7260   -6.9970 hc        1 MOL      0.010765
     38 N3         -2.2460   -6.0710   -1.8340 n         1 MOL     -0.538810
     39 C13        -3.3720   -5.1850   -1.4220 c3        1 MOL     -0.107461
     40 C14        -4.1860   -5.9440   -0.2940 c         1 MOL      0.528058
     41 O6         -4.5760   -7.0410   -0.4410 o         1 MOL     -0.530985
     42 C15        -4.2490   -4.9280   -2.6250 c3        1 MOL     -0.098740
     43 C16        -5.3870   -3.9890   -2.4220 c         1 MOL      0.718973
     44 O7         -5.9110   -3.4990   -3.4430 o         1 MOL     -0.718152
     45 O8         -5.6520   -3.5310   -1.2640 o         1 MOL     -0.718152
     46 H19        -2.5530   -7.0220   -1.9740 hn        1 MOL      0.323402
     47 H20        -3.1130   -4.2150   -0.9880 h1        1 MOL      0.107967
     48 H21        -4.6820   -5.8970   -2.8560 hc        1 MOL      0.021023
     49 H22        -3.5780   -4.5870   -3.4120 hc        1 MOL      0.021023
     50 N4         -4.4340   -5.2530    0.8530 n         1 MOL     -0.180455
     51 C17        -5.2030   -5.8190    1.9070 c3        1 MOL     -0.196226
     52 C18        -5.8470   -4.8190    2.8280 c         1 MOL      0.618410
     53 O9         -6.2030   -5.1810    3.9610 o         1 MOL     -0.600662
     54 H23        -3.8980   -4.4010    0.9190 hn        1 MOL      0.207635
     55 H24        -4.6270   -6.5670    2.4410 h1        1 MOL      0.081896
     56 H25        -6.0660   -6.2850    1.4270 h1        1 MOL      0.081896
     57 N5         -6.0180   -3.6040    2.2890 n         1 MOL     -0.318787
     58 C19        -6.5380   -2.3800    3.0200 c3        1 MOL      0.011518
     59 C20        -7.4120   -1.5750    2.0560 c         1 MOL      0.400838
     60 O10        -8.5310   -1.1510    2.4010 o         1 MOL     -0.597950
     61 C21        -5.3830   -1.5230    3.5120 c3        1 MOL     -0.091848
     62 C22        -4.3360   -1.2270    2.3950 c         1 MOL      0.629778
     63 O11        -3.3040   -1.9320    2.4940 o         1 MOL     -0.656174
     64 O12        -4.5280   -0.4900    1.3830 o         1 MOL     -0.656174
     65 H26        -5.8320   -3.3960    1.3190 hn        1 MOL      0.121597
     66 H27        -7.0710   -2.7530    3.8920 h1        1 MOL      0.076498
     67 H28        -4.8570   -1.9450    4.3690 hc        1 MOL      0.016874
     68 H29        -5.7450   -0.5370    3.8240 hc        1 MOL      0.016874
     69 N6         -7.0360   -1.3620    0.7950 n         1 MOL     -0.081109
     70 C23        -7.8160   -0.7800   -0.2960 c3        1 MOL     -0.381493
     71 C24        -7.8410    0.7840   -0.2290 c         1 MOL      0.569440
     72 O13        -8.6380    1.3870   -0.9390 o         1 MOL     -0.585619
     73 H30        -6.0530   -1.5480    0.6530 hn        1 MOL      0.292649
     74 H31        -8.8620   -1.0560   -0.1870 h1        1 MOL      0.167264
     75 H32        -7.3660   -1.1630   -1.2100 h1        1 MOL      0.167264
     76 N7         -7.0940    1.3930    0.7150 n         1 MOL     -0.009048
     77 C25        -7.0990    2.7810    1.1630 c3        1 MOL      0.004561
     78 C26        -6.7950    3.7480   -0.0340 c         1 MOL      0.403663
     79 O14        -7.2050    4.9360   -0.0120 o         1 MOL     -0.512851
     80 C27        -8.3600    3.1350    1.9820 c3        1 MOL     -0.103375
     81 C28        -8.5730    1.9910    3.0090 c3        1 MOL     -0.038913
     82 C29        -9.1610    2.4190    4.3250 c         1 MOL      0.572064
     83 N8        -10.3750    2.9700    4.3500 n         1 MOL     -0.773624
     84 O15        -8.5210    2.4220    5.3790 o         1 MOL     -0.564871
     85 H33        -6.3250    0.8060    0.9810 hn        1 MOL     -0.005218
     86 H34        -6.2810    2.9960    1.8550 h1        1 MOL      0.092656
     87 H35        -9.1800    3.1340    1.2700 hc        1 MOL      0.045915
     88 H36        -8.2330    4.1420    2.3720 hc        1 MOL      0.045915
     89 H37        -7.6090    1.5480    3.2940 hc        1 MOL      0.050423
     90 H38        -9.1580    1.2180    2.5180 hc        1 MOL      0.050423
     91 H39       -10.8910    3.2020    3.5160 hn        1 MOL      0.341099
     92 H40       -10.5170    3.3440    5.2810 hn        1 MOL      0.341099
     93 N9         -6.0940    3.3150   -1.1220 n         1 MOL     -0.368227
     94 C30        -5.7060    4.1330   -2.2970 c3        1 MOL     -0.095805
     95 C31        -4.1970    4.1010   -2.7030 c         1 MOL      0.482967
     96 O16        -3.8430    4.5460   -3.8070 o         1 MOL     -0.534873
     97 C32        -6.5620    3.7760   -3.5900 c3        1 MOL      0.375657
     98 C33        -6.3530    2.3360   -3.9820 c3        1 MOL     -0.359745
     99 C34        -8.0320    4.0450   -3.3780 c3        1 MOL     -0.359745
    100 H41        -5.8140    2.3450   -1.1910 hn        1 MOL      0.275724
    101 H42        -5.9640    5.1740   -2.0940 h1        1 MOL      0.105304
    102 H43        -6.2000    4.3530   -4.4390 hc        1 MOL     -0.062900
    103 H44        -5.3040    2.1180   -3.8090 hc        1 MOL      0.081715
    104 H45        -7.0260    1.7600   -3.3400 hc        1 MOL      0.081715
    105 H46        -6.6950    2.2070   -5.0020 hc        1 MOL      0.081715
    106 H47        -8.2180    5.0960   -3.1910 hc        1 MOL      0.081715
    107 H48        -8.6670    3.6590   -4.1850 hc        1 MOL      0.081715
    108 H49        -8.3210    3.4860   -2.4780 hc        1 MOL      0.081715
    109 N10        -3.2520    3.6110   -1.8740 n         1 MOL     -0.401736
    110 C35        -1.8260    3.4630   -2.1570 c3        1 MOL      0.159529
    111 C36        -1.0110    3.3320   -0.8460 c         1 MOL      0.476163
    112 O17        -1.5320    3.0650    0.2380 o         1 MOL     -0.510895
    113 C37        -1.6610    2.2560   -3.1450 c3        1 MOL     -0.031103
    114 C38        -0.2440    1.7430   -3.1440 c         1 MOL      0.368215
    115 N11         0.1010    0.7420   -2.3380 n         1 MOL     -0.517516
    116 O18         0.6200    2.3400   -3.8310 o         1 MOL     -0.535384
    117 H50        -3.5370    3.0300   -1.1080 hn        1 MOL      0.221853
    118 H51        -1.4600    4.2770   -2.7840 h1        1 MOL      0.051540
    119 H52        -1.8760    2.5840   -4.1630 hc        1 MOL      0.048902
    120 H53        -2.3330    1.4390   -2.8990 hc        1 MOL      0.048902
    121 H54        -0.6340    0.3330   -1.7780 hn        1 MOL      0.323073
    122 H55         1.0200    0.3410   -2.4950 hn        1 MOL      0.323073
    123 N12         0.2720    3.5960   -0.9810 n         1 MOL     -0.498434
    124 C39         1.2820    3.6260    0.1870 c3        1 MOL      0.106849
    125 C40         2.7110    4.1670   -0.2050 c         1 MOL      0.543442
    126 O19         3.0870    3.8310   -1.3420 o         1 MOL     -0.524723
    127 C41         1.4810    2.1350    0.7340 c3        1 MOL     -0.248731
    128 C42         1.7280    2.1540    2.1900 ca        1 MOL      0.164058
    129 C43         3.0670    2.3100    2.6520 ca        1 MOL     -0.201977
    130 C44         0.7160    2.1930    3.0950 ca        1 MOL     -0.201977
    131 C45         3.3500    2.5300    3.9910 ca        1 MOL     -0.270113
    132 C46         1.0640    2.1990    4.4790 ca        1 MOL     -0.270113
    133 C47         2.3410    2.3190    4.9690 ca        1 MOL      0.350036
    134 O20         2.7790    2.2390    6.2330 oh        1 MOL     -0.499055
    135 H56         0.6460    3.6600   -1.9140 hn        1 MOL      0.297249
    136 H57         0.7480    4.1740    0.9620 h1        1 MOL      0.084219
    137 H58         2.2980    1.6510    0.2020 hc        1 MOL      0.121215
    138 H59         0.5900    1.5040    0.6660 hc        1 MOL      0.121215
    139 H60         3.8760    2.2430    1.9360 ha        1 MOL      0.185156
    140 H61        -0.3220    2.0150    2.8600 ha        1 MOL      0.185156
    141 H62         4.3690    2.6450    4.3280 ha        1 MOL      0.137862
    142 H63         0.2990    2.1910    5.2340 ha        1 MOL      0.137862
    143 H64         3.6630    2.6280    6.2070 ho        1 MOL      0.355102
    144 N13         3.3990    4.8640    0.6590 n         1 MOL     -0.540659
    145 C48         4.7840    5.2390    0.3920 c3        1 MOL      0.100613
    146 C49         5.7190    4.6440    1.4530 c         1 MOL      0.482792
    147 O21         5.9160    5.1500    2.5830 o         1 MOL     -0.562915
    148 C50         4.9740    6.7950    0.3180 c3        1 MOL      0.191763
    149 C51         4.3420    7.5470   -0.8380 c3        1 MOL     -0.192875
    150 C52         4.3530    9.0490   -0.5470 c         1 MOL      0.648908
    151 O22         5.3900    9.7320   -0.8150 o         1 MOL     -0.675437
    152 O23         3.3490    9.5440    0.0430 o         1 MOL     -0.675437
    153 H65         2.9820    5.1200    1.5490 hn        1 MOL      0.316887
    154 H66         5.1300    4.9170   -0.5840 h1        1 MOL      0.086713
    155 H67         6.0260    7.0530    0.2320 hc        1 MOL     -0.018206
    156 H68         4.6230    7.2400    1.2490 hc        1 MOL     -0.018206
    157 H69         3.2970    7.2340   -0.9160 hc        1 MOL      0.016411
    158 H70         4.8510    7.3780   -1.7920 hc        1 MOL      0.016411
    159 N14         6.4560    3.5380    1.1570 n         1 MOL     -0.464283
    160 C53         6.4840    2.7440   -0.1080 c3        1 MOL     -0.203048
    161 C54         6.9980    3.4560   -1.3250 c         1 MOL      0.634099
    162 O24         8.0070    4.2100   -1.2510 o         1 MOL     -0.558829
    163 C55         7.4140    1.5370    0.1800 c3        1 MOL      0.249176
    164 C56         7.1420    0.3130   -0.7410 c3        1 MOL      0.009835
    165 C57         7.3870   -1.0660   -0.1720 c         1 MOL      0.550298
    166 O25         8.5560   -1.3030    0.2060 o         1 MOL     -0.638846
    167 O26         6.4470   -1.9150   -0.0450 o         1 MOL     -0.638846
    168 H71         7.0940    3.2350    1.8870 hn        1 MOL      0.292493
    169 H72         5.4650    2.3750   -0.2100 h1        1 MOL      0.072554
    170 H73         7.2680    1.3400    1.2420 hc        1 MOL     -0.022819
    171 H74         8.4590    1.8360    0.1360 hc        1 MOL     -0.022819
    172 H75         7.7910    0.3940   -1.6230 hc        1 MOL     -0.060226
    173 H76         6.0940    0.3860   -1.0330 hc        1 MOL     -0.060226
    174 N15         6.2730    3.3330   -2.4130 n         1 MOL     -0.336527
    175 C58         6.3500    4.0070   -3.6740 c3        1 MOL     -0.215118
    176 H77         6.8490    4.9670   -3.5420 h1        1 MOL      0.103387
    177 H78         6.9160    3.3980   -4.3790 h1        1 MOL      0.103387
    178 H79         5.3440    4.1710   -4.0610 h1        1 MOL      0.103387
    179 H80         5.5380    2.6460   -2.3210 hn        1 MOL      0.290378
    180 Ca1         7.9430   -3.8230    0.8750 Ca        1 MOL      1.585255
    181 O27         7.6660   -2.2080    2.9190 oh        1 MOL     -0.788173
    182 H81         7.8550   -2.8150    3.6320 ho        1 MOL      0.369567
    183 H82         7.1100   -1.5360    3.3140 ho        1 MOL      0.369567
    184 O28         8.6470   -6.4550    0.6810 oh        1 MOL     -0.788173
    185 H83         9.5270   -6.6170    0.3360 ho        1 MOL      0.369567
    186 H84         8.4300   -7.2500    1.1830 ho        1 MOL      0.369567
    187 O29        10.0580   -3.9160    2.3850 oh        1 MOL     -0.788173
    188 H85        10.7500   -4.3900    1.9370 ho        1 MOL      0.369567
    189 H86        10.4950   -3.4590    3.1070 ho        1 MOL      0.369567
    190 O30         7.0940   -4.9860    3.4270 oh        1 MOL     -0.788173
    191 H87         6.9420   -4.9460    4.3620 ho        1 MOL      0.369567
    192 H88         6.3380   -4.5410    3.0350 ho        1 MOL      0.369567
    193 O31        10.4540   -4.0810   -0.4040 oh        1 MOL     -0.788173
    194 H89        10.7220   -3.6600   -1.2200 ho        1 MOL      0.369567
    195 H90        10.6440   -5.0080   -0.5270 ho        1 MOL      0.369567
@<TRIPOS>BOND
     1    1    2 1   
     2    1    4 1   
     3    1    5 1   
     4    1    6 1   
     5    2    3 2   
     6    2    7 1   
     7    7    8 1   
     8    7   15 1   
     9    8    9 1   
    10    8   11 1   
    11    8   16 1   
    12    9   10 2   
    13    9   19 1   
    14   11   12 1   
    15   11   17 1   
    16   11   18 1   
    17   12   13 1   
    18   12   14 1   
    19   19   20 1   
    20   19   27 1   
    21   20   21 1   
    22   20   23 1   
    23   20   28 1   
    24   21   22 2   
    25   21   38 1   
    26   23   24 1   
    27   23   25 1   
    28   23   29 1   
    29   24   26 1   
    30   24   30 1   
    31   24   31 1   
    32   25   32 1   
    33   25   33 1   
    34   25   34 1   
    35   26   35 1   
    36   26   36 1   
    37   26   37 1   
    38   38   39 1   
    39   38   46 1   
    40   39   40 1   
    41   39   42 1   
    42   39   47 1   
    43   40   41 2   
    44   40   50 1   
    45   42   43 1   
    46   42   48 1   
    47   42   49 1   
    48   43   44 1   
    49   43   45 1   
    50   50   51 1   
    51   50   54 1   
    52   51   52 1   
    53   51   55 1   
    54   51   56 1   
    55   52   53 2   
    56   52   57 1   
    57   57   58 1   
    58   57   65 1   
    59   58   59 1   
    60   58   61 1   
    61   58   66 1   
    62   59   60 2   
    63   59   69 1   
    64   61   62 1   
    65   61   67 1   
    66   61   68 1   
    67   62   63 1   
    68   62   64 1   
    69   69   70 1   
    70   69   73 1   
    71   70   71 1   
    72   70   74 1   
    73   70   75 1   
    74   71   72 2   
    75   71   76 1   
    76   76   77 1   
    77   76   85 1   
    78   77   78 1   
    79   77   80 1   
    80   77   86 1   
    81   78   79 2   
    82   78   93 1   
    83   80   81 1   
    84   80   87 1   
    85   80   88 1   
    86   81   82 1   
    87   81   89 1   
    88   81   90 1   
    89   82   83 1   
    90   82   84 2   
    91   83   91 1   
    92   83   92 1   
    93   93   94 1   
    94   93  100 1   
    95   94   95 1   
    96   94   97 1   
    97   94  101 1   
    98   95   96 2   
    99   95  109 1   
   100   97   98 1   
   101   97   99 1   
   102   97  102 1   
   103   98  103 1   
   104   98  104 1   
   105   98  105 1   
   106   99  106 1   
   107   99  107 1   
   108   99  108 1   
   109  109  110 1   
   110  109  117 1   
   111  110  111 1   
   112  110  113 1   
   113  110  118 1   
   114  111  112 2   
   115  111  123 1   
   116  113  114 1   
   117  113  119 1   
   118  113  120 1   
   119  114  115 1   
   120  114  116 2   
   121  115  121 1   
   122  115  122 1   
   123  123  124 1   
   124  123  135 1   
   125  124  125 1   
   126  124  127 1   
   127  124  136 1   
   128  125  126 2   
   129  125  144 1   
   130  127  128 1   
   131  127  137 1   
   132  127  138 1   
   133  128  129 ar  
   134  128  130 ar  
   135  129  131 ar  
   136  129  139 1   
   137  130  132 ar  
   138  130  140 1   
   139  131  133 ar  
   140  131  141 1   
   141  132  133 ar  
   142  132  142 1   
   143  133  134 1   
   144  134  143 1   
   145  144  145 1   
   146  144  153 1   
   147  145  146 1   
   148  145  148 1   
   149  145  154 1   
   150  146  147 2   
   151  146  159 1   
   152  148  149 1   
   153  148  155 1   
   154  148  156 1   
   155  149  150 1   
   156  149  157 1   
   157  149  158 1   
   158  150  151 1   
   159  150  152 1   
   160  159  160 1   
   161  159  168 1   
   162  160  161 1   
   163  160  163 1   
   164  160  169 1   
   165  161  162 2   
   166  161  174 1   
   167  163  164 1   
   168  163  170 1   
   169  163  171 1   
   170  164  165 1   
   171  164  172 1   
   172  164  173 1   
   173  165  166 1   
   174  165  167 1   
   175  174  175 1   
   176  174  179 1   
   177  175  176 1   
   178  175  177 1   
   179  175  178 1   
   180  181  182 1   
   181  181  183 1   
   182  184  185 1   
   183  184  186 1   
   184  187  188 1   
   185  187  189 1   
   186  190  191 1   
   187  190  192 1   
   188  193  194 1   
   189  193  195 1   
@<TRIPOS>SUBSTRUCTURE
     1 MOL         1 TEMP              0 ****  ****    0 ROOT
