@<TRIPOS>MOLECULE
MOL
  198   191     1     0     0
SMALL
resp


@<TRIPOS>ATOM
      1 C1         -3.8110   -4.9970    3.1110 c3        1 MOL     -0.021864
      2 C2         -2.8460   -4.5380    1.9840 c         1 MOL      0.702480
      3 O1         -2.5590   -3.3620    1.9650 o         1 MOL     -0.562498
      4 H1         -4.4380   -5.8090    2.7430 hc        1 MOL     -0.027599
      5 H2         -3.2310   -5.3450    3.9660 hc        1 MOL     -0.027599
      6 H3         -4.4410   -4.1610    3.4140 hc        1 MOL     -0.027599
      7 N1         -2.2620   -5.4090    1.1530 n         1 MOL     -0.701130
      8 C3         -1.4240   -5.0190   -0.0470 c3        1 MOL     -0.086542
      9 C4         -0.0160   -4.4770    0.4670 c         1 MOL      0.669570
     10 O2          0.6150   -3.7440   -0.3120 o         1 MOL     -0.611147
     11 C5         -2.2010   -4.1840   -1.1000 c3        1 MOL     -0.497821
     12 C6         -3.6250   -4.6890   -1.4380 c         1 MOL      0.460285
     13 O3         -4.7080   -4.2460   -0.9190 o         1 MOL     -0.561134
     14 O4         -3.6560   -5.6130   -2.2560 o         1 MOL     -0.561134
     15 H4         -2.5660   -6.3680    1.1880 hn        1 MOL      0.382188
     16 H5         -1.1870   -5.9290   -0.6090 h1        1 MOL      0.143871
     17 H6         -1.6120   -4.2850   -2.0150 hc        1 MOL      0.251062
     18 H7         -2.2450   -3.1360   -0.7990 hc        1 MOL      0.251062
     19 N2          0.4320   -4.7440    1.6880 n         1 MOL     -0.494659
     20 C7          1.6440   -4.2490    2.3060 c3        1 MOL     -0.036382
     21 C8          2.8110   -5.2380    2.0380 c         1 MOL      0.463832
     22 O5          2.6280   -6.4590    2.0090 o         1 MOL     -0.582040
     23 C9          1.4000   -4.0960    3.8450 c3        1 MOL      0.283541
     24 C10         0.2510   -3.1690    4.1230 c3        1 MOL      0.021386
     25 C11         2.7080   -3.7430    4.5430 c3        1 MOL     -0.187730
     26 C12         0.0240   -2.8790    5.6420 c3        1 MOL     -0.570347
     27 H8         -0.2030   -5.3460    2.1940 hn        1 MOL      0.281788
     28 H9          1.9660   -3.2630    1.9680 h1        1 MOL      0.058437
     29 H10         1.1500   -5.0940    4.2010 hc        1 MOL     -0.063418
     30 H11        -0.6620   -3.5490    3.6590 hc        1 MOL      0.071446
     31 H12         0.4810   -2.2020    3.6750 hc        1 MOL      0.071446
     32 H13         2.9600   -2.7140    4.3250 hc        1 MOL      0.029311
     33 H14         2.6620   -3.8940    5.6280 hc        1 MOL      0.029311
     34 H15         3.4170   -4.4700    4.1510 hc        1 MOL      0.029311
     35 H16        -0.9730   -2.4590    5.7490 hc        1 MOL      0.144940
     36 H17        -0.1990   -3.8460    6.1010 hc        1 MOL      0.144940
     37 H18         0.8620   -2.4070    6.1370 hc        1 MOL      0.144940
     38 N3          4.0340   -4.7870    1.7550 n         1 MOL     -0.149621
     39 C13         4.5380   -3.3740    1.6460 c3        1 MOL     -0.054847
     40 C14         4.4410   -2.8110    0.2470 c         1 MOL      0.272179
     41 O6          4.6230   -1.6470    0.0160 o         1 MOL     -0.458062
     42 C15         6.0360   -3.3240    1.9720 c3        1 MOL     -0.442010
     43 C16         6.9540   -4.2660    1.2520 c         1 MOL      0.808056
     44 O7          6.5430   -5.3040    0.7370 o         1 MOL     -0.657066
     45 O8          8.1500   -4.0640    1.1420 o         1 MOL     -0.657066
     46 H19         4.6850   -5.5360    1.6060 hn        1 MOL      0.178078
     47 H20         3.9460   -2.6900    2.2640 h1        1 MOL      0.120944
     48 H21         6.0580   -3.6360    3.0180 hc        1 MOL      0.117781
     49 H22         6.4540   -2.3310    1.8440 hc        1 MOL      0.117781
     50 N4          4.0490   -3.6790   -0.7150 n         1 MOL     -0.025228
     51 C17         4.0770   -3.4400   -2.1590 c3        1 MOL     -0.381648
     52 C18         5.5080   -3.1080   -2.5330 c         1 MOL      0.586195
     53 O9          6.4240   -3.8850   -2.2640 o         1 MOL     -0.528238
     54 H23         3.9670   -4.6600   -0.4720 hn        1 MOL      0.217568
     55 H24         3.3780   -2.6560   -2.4380 h1        1 MOL      0.139560
     56 H25         3.8860   -4.4290   -2.5630 h1        1 MOL      0.139560
     57 N5          5.6660   -1.8910   -3.1200 n         1 MOL     -0.567316
     58 C19         7.0250   -1.3940   -3.6060 c3        1 MOL      0.242674
     59 C20         7.8360   -0.7800   -2.3970 c         1 MOL      0.293289
     60 O10         8.8420   -0.1930   -2.6270 o         1 MOL     -0.474406
     61 C21         6.8410   -0.4250   -4.7650 c3        1 MOL     -0.271893
     62 C22         6.1550    0.8610   -4.3860 c         1 MOL      0.797634
     63 O11         6.0500    1.7150   -5.2720 o         1 MOL     -0.718247
     64 O12         5.7310    1.0480   -3.2110 o         1 MOL     -0.718247
     65 H26         4.9270   -1.2000   -3.1300 hn        1 MOL      0.334028
     66 H27         7.5990   -2.2000   -4.0650 h1        1 MOL      0.046245
     67 H28         6.1540   -0.8900   -5.4740 hc        1 MOL      0.045197
     68 H29         7.8100   -0.1900   -5.2050 hc        1 MOL      0.045197
     69 N6          7.4430   -1.0260   -1.0900 n         1 MOL     -0.154976
     70 C23         8.0980   -0.4780    0.1180 c3        1 MOL     -0.010606
     71 C24         7.8420    1.0610    0.4250 c         1 MOL      0.507817
     72 O13         8.1350    1.4450    1.5520 o         1 MOL     -0.551822
     73 H30         6.5800   -1.5390   -0.9620 hn        1 MOL      0.222598
     74 H31         9.1750   -0.4850   -0.0090 h1        1 MOL      0.050201
     75 H32         7.8550   -1.1250    0.9550 h1        1 MOL      0.050201
     76 N7          7.2180    1.7610   -0.5540 n         1 MOL     -0.191963
     77 C25         6.6570    3.1580   -0.5030 c3        1 MOL      0.245514
     78 C26         5.9340    3.5310    0.8370 c         1 MOL      0.190926
     79 O14         5.7250    4.7540    1.1000 o         1 MOL     -0.504845
     80 C27         7.7920    4.1070   -0.7720 c3        1 MOL      0.014183
     81 C28         8.1450    4.0100   -2.2370 c3        1 MOL     -0.252490
     82 C29         9.6020    4.2280   -2.6690 c         1 MOL      0.689416
     83 N8          9.7400    4.4510   -3.9410 n         1 MOL     -0.826046
     84 O15        10.6010    4.1660   -1.9840 o         1 MOL     -0.578585
     85 H33         6.9720    1.2330   -1.3800 hn        1 MOL      0.032942
     86 H34         5.9020    3.2890   -1.2650 h1        1 MOL      0.072771
     87 H35         8.6520    3.7280   -0.2090 hc        1 MOL     -0.000541
     88 H36         7.5390    5.1370   -0.5250 hc        1 MOL     -0.000541
     89 H37         7.4190    4.5760   -2.8200 hc        1 MOL      0.085870
     90 H38         7.8690    3.0100   -2.5920 hc        1 MOL      0.085870
     91 H39         8.9090    4.4780   -4.5120 hn        1 MOL      0.360377
     92 H40        10.6740    4.4720   -4.3280 hn        1 MOL      0.360377
     93 N9          5.4530    2.5890    1.6210 n         1 MOL      0.009671
     94 C30         4.5980    2.7060    2.7950 c3        1 MOL     -0.119192
     95 C31         3.0790    2.8630    2.6330 c         1 MOL      0.538047
     96 O16         2.3800    3.4360    3.4380 o         1 MOL     -0.528429
     97 C32         5.0040    1.6610    3.8320 c3        1 MOL      0.350487
     98 C33         5.0050    0.2780    3.2120 c3        1 MOL     -0.312519
     99 C34         6.3260    1.9910    4.5880 c3        1 MOL     -0.312519
    100 H41         5.6540    1.6280    1.3800 hn        1 MOL      0.086582
    101 H42         4.8530    3.6640    3.2640 h1        1 MOL      0.061464
    102 H43         4.2310    1.8090    4.5920 hc        1 MOL     -0.052888
    103 H44         5.1330   -0.3690    4.0870 hc        1 MOL      0.064560
    104 H45         4.0570    0.2410    2.6910 hc        1 MOL      0.064560
    105 H46         5.8540    0.0690    2.5590 hc        1 MOL      0.064560
    106 H47         6.1770    2.8990    5.1750 hc        1 MOL      0.064560
    107 H48         6.4500    1.2450    5.3650 hc        1 MOL      0.064560
    108 H49         7.1440    1.9950    3.8670 hc        1 MOL      0.064560
    109 N10         2.5620    2.2380    1.5230 n         1 MOL     -0.393497
    110 C35         1.1530    2.0990    1.2510 c3        1 MOL      0.337239
    111 C36         0.6410    3.2130    0.3590 c         1 MOL      0.492550
    112 O17         1.3290    4.0340   -0.2560 o         1 MOL     -0.540006
    113 C37         0.8980    0.6720    0.7940 c3        1 MOL     -0.342270
    114 C38        -0.5510    0.1820    1.0320 c         1 MOL      0.817713
    115 N11        -0.7720   -1.1410    0.9370 n         1 MOL     -0.876889
    116 O18        -1.4170    0.8820    1.4970 o         1 MOL     -0.567727
    117 H50         3.1210    2.0020    0.7240 hn        1 MOL      0.196449
    118 H51         0.6480    2.2110    2.2110 h1        1 MOL     -0.017635
    119 H52         1.4510    0.0250    1.4730 hc        1 MOL      0.090168
    120 H53         1.0300    0.6200   -0.2850 hc        1 MOL      0.090168
    121 H54        -0.1150   -1.7830    0.5240 hn        1 MOL      0.375842
    122 H55        -1.6580   -1.5290    1.2260 hn        1 MOL      0.375842
    123 N12        -0.6870    3.2200    0.3230 n         1 MOL     -0.496815
    124 C39        -1.5360    4.1680   -0.4260 c3        1 MOL      0.195352
    125 C40        -2.9640    4.3540    0.1660 c         1 MOL      0.524392
    126 O19        -3.3510    3.6420    1.0620 o         1 MOL     -0.561423
    127 C41        -1.7310    3.7020   -1.9440 c3        1 MOL      0.106461
    128 C42        -2.5360    2.4600   -2.2350 ca        1 MOL     -0.017921
    129 C43        -3.8550    2.4220   -2.6060 ca        1 MOL     -0.189787
    130 C44        -1.8850    1.2350   -1.8910 ca        1 MOL     -0.189787
    131 C45        -4.5110    1.2010   -2.7840 ca        1 MOL     -0.029707
    132 C46        -2.6010   -0.0140   -1.9360 ca        1 MOL     -0.029707
    133 C47        -3.8710   -0.0500   -2.5280 ca        1 MOL      0.026228
    134 O20        -4.5600   -1.1500   -2.7620 oh        1 MOL     -0.383444
    135 H56        -1.2660    2.6230    0.8940 hn        1 MOL      0.272132
    136 H57        -1.1550    5.1920   -0.4420 h1        1 MOL      0.018642
    137 H58        -0.8290    3.8290   -2.5260 hc        1 MOL     -0.023919
    138 H59        -2.2460    4.5430   -2.4050 hc        1 MOL     -0.023919
    139 H60        -4.3210    3.3810   -2.8020 ha        1 MOL      0.112851
    140 H61        -0.8490    1.2960   -1.6000 ha        1 MOL      0.112851
    141 H62        -5.4660    1.3440   -3.2630 ha        1 MOL      0.046728
    142 H63        -2.0000   -0.8980   -1.7590 ha        1 MOL      0.046728
    143 H64        -5.3530   -1.0100   -3.2840 ho        1 MOL      0.418184
    144 N13        -3.6690    5.2990   -0.3910 n         1 MOL     -0.402036
    145 C48        -4.8760    5.8670    0.0840 c3        1 MOL      0.095131
    146 C49        -5.8920    5.9330   -1.0960 c         1 MOL      0.563548
    147 O21        -6.0060    6.9590   -1.7680 o         1 MOL     -0.580315
    148 C50        -4.5640    7.2340    0.6940 c3        1 MOL     -0.257805
    149 C51        -3.9070    7.2110    2.0880 c3        1 MOL     -0.091259
    150 C52        -4.1570    8.5830    2.8680 c         1 MOL      0.726003
    151 O22        -4.5180    8.5590    4.0560 o         1 MOL     -0.656778
    152 O23        -3.8260    9.6200    2.3390 o         1 MOL     -0.656778
    153 H65        -3.2490    5.7880   -1.1780 hn        1 MOL      0.275516
    154 H66        -5.3330    5.2860    0.8820 h1        1 MOL      0.069934
    155 H67        -5.5080    7.7490    0.8740 hc        1 MOL      0.088935
    156 H68        -3.8420    7.8290    0.1270 hc        1 MOL      0.088935
    157 H69        -2.8330    7.0380    2.0210 hc        1 MOL      0.016797
    158 H70        -4.4220    6.4700    2.7010 hc        1 MOL      0.016797
    159 N14        -6.6770    4.8970   -1.4230 n         1 MOL     -0.506549
    160 C53        -6.9580    3.7220   -0.6710 c3        1 MOL      0.070184
    161 C54        -7.5880    3.7590    0.7210 c         1 MOL      0.805645
    162 O24        -8.4010    4.6740    0.8970 o         1 MOL     -0.618153
    163 C55        -7.9540    2.8680   -1.6480 c3        1 MOL     -0.598704
    164 C56        -8.1640    1.4480   -1.1660 c3        1 MOL     -0.125955
    165 C57        -8.7800    0.5420   -2.2430 c         1 MOL      0.621871
    166 O25        -9.7660    0.9960   -2.9300 o         1 MOL     -0.634461
    167 O26        -8.3140   -0.6040   -2.4360 o         1 MOL     -0.634461
    168 H71        -7.3850    5.0940   -2.1190 hn        1 MOL      0.318967
    169 H72        -6.0370    3.1530   -0.5550 h1        1 MOL      0.029282
    170 H73        -7.4030    2.7610   -2.5800 hc        1 MOL      0.195764
    171 H74        -8.8750    3.4570   -1.7280 hc        1 MOL      0.195764
    172 H75        -8.7260    1.3800   -0.2380 hc        1 MOL      0.035404
    173 H76        -7.2080    0.9640   -0.9830 hc        1 MOL      0.035404
    174 N15        -7.1570    2.9880    1.7080 n         1 MOL     -0.407549
    175 C58        -7.7170    2.8190    3.0910 c3        1 MOL     -0.189575
    176 H77        -8.7080    2.3700    3.0280 h1        1 MOL      0.100523
    177 H78        -7.0620    2.1700    3.6720 h1        1 MOL      0.100523
    178 H79        -7.7900    3.7920    3.5760 h1        1 MOL      0.100523
    179 H80        -6.4400    2.3220    1.4590 hn        1 MOL      0.280001
    180 Ca1        -7.1860   -4.8760   -0.5020 Ca        1 MOL      1.397795
    181 O27        -7.4170   -4.1330   -3.1520 oh        1 MOL     -0.689313
    182 O28        -6.9230   -2.1190   -0.7810 oh        1 MOL     -0.689313
    183 H81        -7.3390   -3.1910   -3.2660 ho        1 MOL      0.323138
    184 H82        -7.3280   -1.5440   -1.4280 ho        1 MOL      0.323138
    185 H83        -7.2550   -4.4960   -4.0230 ho        1 MOL      0.323138
    186 H84        -6.0360   -1.7720   -0.6700 ho        1 MOL      0.323138
    187 O29        -7.4220   -3.8060    1.7670 oh        1 MOL     -0.689313
    188 H85        -8.2620   -3.7750    2.2140 ho        1 MOL      0.323138
    189 H86        -6.8850   -3.1580    2.2310 ho        1 MOL      0.323138
    190 O30        -9.6690   -3.9330   -0.4450 oh        1 MOL     -0.689313
    191 H87       -10.3800   -4.2380   -1.0070 ho        1 MOL      0.323138
    192 H88       -10.0890   -3.7890    0.4090 ho        1 MOL      0.323138
    193 O31        -9.1370   -6.6620   -1.5460 oh        1 MOL     -0.689313
    194 H89        -9.1790   -7.2740   -0.8100 ho        1 MOL      0.323138
    195 H90        -9.8730   -6.9030   -2.1050 ho        1 MOL      0.323138
    196 O32        -6.0180   -6.8430   -1.9040 oh        1 MOL     -0.689313
    197 H91        -5.8320   -7.7220   -1.5980 ho        1 MOL      0.323138
    198 H92        -5.1530   -6.5020   -2.1640 ho        1 MOL      0.323138
@<TRIPOS>BOND
     1    1    2 1   
     2    1    4 1   
     3    1    5 1   
     4    1    6 1   
     5    2    3 2   
     6    2    7 1   
     7    7    8 1   
     8    7   15 1   
     9    8    9 1   
    10    8   11 1   
    11    8   16 1   
    12    9   10 2   
    13    9   19 1   
    14   11   12 1   
    15   11   17 1   
    16   11   18 1   
    17   12   13 1   
    18   12   14 1   
    19   19   20 1   
    20   19   27 1   
    21   20   21 1   
    22   20   23 1   
    23   20   28 1   
    24   21   22 2   
    25   21   38 1   
    26   23   24 1   
    27   23   25 1   
    28   23   29 1   
    29   24   26 1   
    30   24   30 1   
    31   24   31 1   
    32   25   32 1   
    33   25   33 1   
    34   25   34 1   
    35   26   35 1   
    36   26   36 1   
    37   26   37 1   
    38   38   39 1   
    39   38   46 1   
    40   39   40 1   
    41   39   42 1   
    42   39   47 1   
    43   40   41 2   
    44   40   50 1   
    45   42   43 1   
    46   42   48 1   
    47   42   49 1   
    48   43   44 1   
    49   43   45 1   
    50   50   51 1   
    51   50   54 1   
    52   51   52 1   
    53   51   55 1   
    54   51   56 1   
    55   52   53 2   
    56   52   57 1   
    57   57   58 1   
    58   57   65 1   
    59   58   59 1   
    60   58   61 1   
    61   58   66 1   
    62   59   60 2   
    63   59   69 1   
    64   61   62 1   
    65   61   67 1   
    66   61   68 1   
    67   62   63 1   
    68   62   64 1   
    69   69   70 1   
    70   69   73 1   
    71   70   71 1   
    72   70   74 1   
    73   70   75 1   
    74   71   72 2   
    75   71   76 1   
    76   76   77 1   
    77   76   85 1   
    78   77   78 1   
    79   77   80 1   
    80   77   86 1   
    81   78   79 2   
    82   78   93 1   
    83   80   81 1   
    84   80   87 1   
    85   80   88 1   
    86   81   82 1   
    87   81   89 1   
    88   81   90 1   
    89   82   83 1   
    90   82   84 2   
    91   83   91 1   
    92   83   92 1   
    93   93   94 1   
    94   93  100 1   
    95   94   95 1   
    96   94   97 1   
    97   94  101 1   
    98   95   96 2   
    99   95  109 1   
   100   97   98 1   
   101   97   99 1   
   102   97  102 1   
   103   98  103 1   
   104   98  104 1   
   105   98  105 1   
   106   99  106 1   
   107   99  107 1   
   108   99  108 1   
   109  109  110 1   
   110  109  117 1   
   111  110  111 1   
   112  110  113 1   
   113  110  118 1   
   114  111  112 2   
   115  111  123 1   
   116  113  114 1   
   117  113  119 1   
   118  113  120 1   
   119  114  115 1   
   120  114  116 2   
   121  115  121 1   
   122  115  122 1   
   123  123  124 1   
   124  123  135 1   
   125  124  125 1   
   126  124  127 1   
   127  124  136 1   
   128  125  126 2   
   129  125  144 1   
   130  127  128 1   
   131  127  137 1   
   132  127  138 1   
   133  128  129 ar  
   134  128  130 ar  
   135  129  131 ar  
   136  129  139 1   
   137  130  132 ar  
   138  130  140 1   
   139  131  133 ar  
   140  131  141 1   
   141  132  133 ar  
   142  132  142 1   
   143  133  134 1   
   144  134  143 1   
   145  144  145 1   
   146  144  153 1   
   147  145  146 1   
   148  145  148 1   
   149  145  154 1   
   150  146  147 2   
   151  146  159 1   
   152  148  149 1   
   153  148  155 1   
   154  148  156 1   
   155  149  150 1   
   156  149  157 1   
   157  149  158 1   
   158  150  151 1   
   159  150  152 1   
   160  159  160 1   
   161  159  168 1   
   162  160  161 1   
   163  160  163 1   
   164  160  169 1   
   165  161  162 2   
   166  161  174 1   
   167  163  164 1   
   168  163  170 1   
   169  163  171 1   
   170  164  165 1   
   171  164  172 1   
   172  164  173 1   
   173  165  166 1   
   174  165  167 1   
   175  174  175 1   
   176  174  179 1   
   177  175  176 1   
   178  175  177 1   
   179  175  178 1   
   180  181  183 1   
   181  181  185 1   
   182  182  184 1   
   183  182  186 1   
   184  187  188 1   
   185  187  189 1   
   186  190  191 1   
   187  190  192 1   
   188  193  194 1   
   189  193  195 1   
   190  196  197 1   
   191  196  198 1   
@<TRIPOS>SUBSTRUCTURE
     1 MOL         1 TEMP              0 ****  ****    0 ROOT
