@<TRIPOS>MOLECULE
MOL
  181   177     1     0     0
SMALL
resp


@<TRIPOS>ATOM
      1 C1         -3.6100   -3.1940   -3.5880 c3        1 MOL     -0.198901
      2 C2         -4.5540   -2.0710   -3.4130 c         1 MOL      0.646242
      3 O1         -4.1660   -0.8780   -3.4480 o         1 MOL     -0.606183
      4 H1         -3.8210   -3.9640   -2.8450 hc        1 MOL      0.040808
      5 H2         -3.7230   -3.6130   -4.5870 hc        1 MOL      0.040808
      6 H3         -2.5880   -2.8350   -3.4580 hc        1 MOL      0.040808
      7 N1         -5.8480   -2.4220   -3.3560 n         1 MOL     -0.441721
      8 C3         -6.9430   -1.5180   -2.9730 c3        1 MOL      0.079892
      9 C4         -6.6850   -1.0440   -1.5210 c         1 MOL      0.311920
     10 O2         -6.2660   -1.8280   -0.6440 o         1 MOL     -0.334775
     11 C5         -8.3120   -2.2730   -3.0970 c3        1 MOL     -0.181124
     12 C6         -8.3830   -3.5520   -2.2140 c         1 MOL      0.753090
     13 O3         -9.2890   -3.7090   -1.4130 o         1 MOL     -0.715217
     14 O4         -7.5900   -4.4870   -2.4700 o         1 MOL     -0.715217
     15 H4         -6.0970   -3.3970   -3.4490 hn        1 MOL      0.236190
     16 H5         -6.9770   -0.6660   -3.6550 h1        1 MOL      0.028644
     17 H6         -8.5240   -2.6290   -4.1100 hc        1 MOL      0.006793
     18 H7         -9.1390   -1.6270   -2.8150 hc        1 MOL      0.006793
     19 N2         -7.0170    0.2410   -1.3620 n         1 MOL     -0.357117
     20 C7         -6.7860    1.1000   -0.2100 c3        1 MOL      0.079111
     21 C8         -5.4500    0.8090    0.4100 c         1 MOL      0.461110
     22 O5         -4.4110    0.6320   -0.3190 o         1 MOL     -0.470131
     23 C9         -6.9230    2.6380   -0.6140 c3        1 MOL     -0.237577
     24 H8         -7.3620    0.6670   -2.2190 hn        1 MOL      0.275217
     25 H9         -7.5310    0.8630    0.5530 h1        1 MOL      0.050321
     26 H10        -6.7700    3.3060    0.2330 hc        1 MOL      0.070477
     27 H11        -6.1740    2.8620   -1.3820 hc        1 MOL      0.070477
     28 H12        -7.9050    2.9090   -1.0010 hc        1 MOL      0.070477
     29 N3         -5.4350    0.7210    1.7160 n         1 MOL     -0.446565
     30 C10        -4.3570    0.1730    2.5000 c3        1 MOL      0.110268
     31 C11        -4.0270    1.1240    3.7110 c         1 MOL      0.505692
     32 O6         -4.7440    2.0250    3.9850 o         1 MOL     -0.538083
     33 C12        -4.7370   -1.2220    3.0180 c3        1 MOL     -0.117397
     34 C13        -3.6470   -1.9290    3.7560 c         1 MOL      0.712081
     35 O7         -3.7580   -2.0240    4.9990 o         1 MOL     -0.745046
     36 O8         -2.6710   -2.3630    3.1640 o         1 MOL     -0.745046
     37 H13        -6.1880    1.1260    2.2500 hn        1 MOL      0.274491
     38 H14        -3.4410    0.2120    1.9160 h1        1 MOL      0.025396
     39 H15        -5.0910   -1.8120    2.1770 hc        1 MOL      0.003070
     40 H16        -5.5430   -1.0650    3.7420 hc        1 MOL      0.003070
     41 N4         -2.8210    1.0010    4.3310 n         1 MOL     -0.134527
     42 C14        -2.4640    1.8020    5.4780 c3        1 MOL     -0.338148
     43 C15        -2.0150    3.2620    5.0710 c         1 MOL      0.581290
     44 O9         -2.1060    4.1690    5.8670 o         1 MOL     -0.539279
     45 H17        -2.2610    0.2170    4.0410 hn        1 MOL      0.259635
     46 H18        -1.6440    1.3120    5.9930 h1        1 MOL      0.130995
     47 H19        -3.3390    1.9380    6.1230 h1        1 MOL      0.130995
     48 N5         -1.5100    3.3840    3.8260 n         1 MOL     -0.363583
     49 C16        -1.2360    4.7370    3.3450 c3        1 MOL      0.177241
     50 C17        -1.3240    4.7740    1.8170 c         1 MOL      0.391024
     51 O10        -1.1540    3.7740    1.1170 o         1 MOL     -0.401834
     52 C18         0.1310    5.1980    3.8920 c3        1 MOL     -0.295057
     53 C19         0.4030    6.7350    3.9050 c         1 MOL      0.684530
     54 N6          1.6750    7.0180    3.8640 n         1 MOL     -0.803683
     55 O11        -0.5240    7.5680    3.8410 o         1 MOL     -0.579614
     56 H20        -1.4480    2.6590    3.1330 hn        1 MOL      0.181266
     57 H21        -1.9750    5.4070    3.7850 h1        1 MOL      0.022887
     58 H22         0.8730    4.7240    3.2470 hc        1 MOL      0.091469
     59 H23         0.2740    4.7800    4.8880 hc        1 MOL      0.091469
     60 H24         2.3490    6.2890    3.6670 hn        1 MOL      0.368177
     61 H25         1.9520    7.9810    3.9980 hn        1 MOL      0.368177
     62 N7         -1.6460    5.9320    1.2770 n         1 MOL     -0.373349
     63 C20        -1.5490    6.3480   -0.1620 c3        1 MOL     -0.257130
     64 C21        -0.0510    6.5700   -0.5070 c         1 MOL      0.638654
     65 O12         0.8940    6.2820    0.2120 o         1 MOL     -0.476626
     66 H26        -1.9740    6.6860    1.8670 hn        1 MOL      0.292970
     67 H27        -2.1710    7.2470   -0.2010 h1        1 MOL      0.148490
     68 H28        -1.9880    5.4910   -0.6750 h1        1 MOL      0.148490
     69 N8          0.1080    6.8860   -1.7980 n         1 MOL     -0.485764
     70 C22         1.3870    6.9190   -2.5020 c3        1 MOL     -0.208967
     71 C23         2.2180    5.6190   -2.7570 c         1 MOL      0.429616
     72 O13         3.3710    5.7470   -3.1560 o         1 MOL     -0.556133
     73 C24         1.1890    7.6110   -3.8730 c3        1 MOL      0.481666
     74 C25         0.3550    6.7890   -4.8240 c3        1 MOL     -0.388563
     75 O14         0.5630    8.9080   -3.6560 oh        1 MOL     -0.649849
     76 H29        -0.7030    6.8420   -2.3990 hn        1 MOL      0.245954
     77 H30         2.0480    7.5520   -1.9110 h1        1 MOL      0.148054
     78 H31         2.1710    7.7760   -4.3000 h1        1 MOL      0.035374
     79 H32        -0.3660    8.7270   -3.4730 ho        1 MOL      0.377536
     80 H33         1.0000    6.1360   -5.4100 hc        1 MOL      0.097981
     81 H34        -0.4820    6.2530   -4.3830 hc        1 MOL      0.097981
     82 H35        -0.0650    7.4060   -5.6050 hc        1 MOL      0.097981
     83 N9          1.6170    4.4590   -2.6670 n         1 MOL     -0.128485
     84 C26         2.1330    3.0940   -2.8200 c3        1 MOL      0.007996
     85 C27         1.3070    2.1170   -2.0240 c         1 MOL      0.346752
     86 O15         0.3080    2.5310   -1.4660 o         1 MOL     -0.496471
     87 C28         2.2420    2.5670   -4.2490 c3        1 MOL      0.023319
     88 C29         0.8480    2.4020   -4.9530 c3        1 MOL     -0.004150
     89 C30         3.1030    3.4420   -5.2880 c3        1 MOL     -0.384285
     90 C31         0.2460    1.0170   -4.5280 c3        1 MOL      0.037902
     91 H36         0.6370    4.5980   -2.4830 hn        1 MOL      0.212541
     92 H37         3.1030    3.0120   -2.3350 h1        1 MOL      0.056743
     93 H38         2.7890    1.6250   -4.1840 hc        1 MOL      0.064906
     94 H39         0.9460    2.5000   -6.0370 hc        1 MOL      0.011239
     95 H40         0.1160    3.1890   -4.7530 hc        1 MOL      0.011239
     96 H41         2.6140    4.3700   -5.5770 hc        1 MOL      0.095076
     97 H42         4.0490    3.6980   -4.7990 hc        1 MOL      0.095076
     98 H43         3.3180    2.7700   -6.1180 hc        1 MOL      0.095076
     99 H44        -0.5860    1.1230   -3.8200 hc        1 MOL     -0.005067
    100 H45        -0.1220    0.4690   -5.3930 hc        1 MOL     -0.005067
    101 H46         1.0220    0.3120   -4.2340 hc        1 MOL     -0.005067
    102 N10         1.8100    0.9160   -1.7520 n         1 MOL     -0.230830
    103 C32         1.4740   -0.1430   -0.7010 c3        1 MOL      0.185947
    104 C33         2.7010   -0.7020   -0.0050 c         1 MOL      0.508100
    105 O16         2.7030   -1.8360    0.4360 o         1 MOL     -0.399120
    106 C34         0.4630   -1.1060   -1.3710 c3        1 MOL     -0.090171
    107 C35        -0.3090   -2.0010   -0.3700 c         1 MOL      0.707142
    108 O17        -0.3910   -3.2000   -0.6270 o         1 MOL     -0.723682
    109 O18        -0.8620   -1.5080    0.6630 o         1 MOL     -0.723682
    110 H47         2.5970    0.6830   -2.3390 hn        1 MOL      0.158840
    111 H48         0.9030    0.2440    0.1390 h1        1 MOL      0.038491
    112 H49         1.0430   -1.7050   -2.0670 hc        1 MOL      0.027945
    113 H50        -0.2730   -0.5310   -1.9370 hc        1 MOL      0.027945
    114 N11         3.7040    0.1710    0.1640 n         1 MOL     -0.581346
    115 C36         5.0250   -0.2490    0.6860 c3        1 MOL      0.315333
    116 C37         5.5150   -1.5670    0.0230 c         1 MOL      0.004281
    117 O19         5.4120   -1.6750   -1.2620 o         1 MOL     -0.418066
    118 C38         5.9970    0.9370    0.5500 c3        1 MOL     -0.176457
    119 C39         7.3580    0.6380    1.0820 ca        1 MOL      0.084190
    120 C40         7.6190    0.8100    2.4290 ca        1 MOL     -0.151886
    121 C41         8.3660    0.0280    0.3250 ca        1 MOL     -0.151886
    122 C42         8.8870    0.5720    3.0090 ca        1 MOL     -0.131763
    123 C43         9.6560   -0.3420    0.8990 ca        1 MOL     -0.131763
    124 C44         9.9970    0.0510    2.2330 ca        1 MOL     -0.117769
    125 H51         3.5580    1.1180   -0.1560 hn        1 MOL      0.272318
    126 H52         4.9360   -0.3970    1.7630 h1        1 MOL      0.018954
    127 H53         5.5870    1.7680    1.1320 hc        1 MOL      0.084056
    128 H54         5.9600    1.2360   -0.4960 hc        1 MOL      0.084056
    129 H55         6.8420    1.1260    3.1070 ha        1 MOL      0.115186
    130 H56         8.1270   -0.2420   -0.6910 ha        1 MOL      0.115186
    131 H57         8.9430    0.8150    4.0550 ha        1 MOL      0.112215
    132 H58        10.3890   -0.9760    0.4150 ha        1 MOL      0.112215
    133 H59        10.9090   -0.2560    2.7220 ha        1 MOL      0.117955
    134 N12         6.1780   -2.4440    0.8200 n         1 MOL      0.421735
    135 C45         6.8330   -3.6060    0.3520 c3        1 MOL     -0.171522
    136 C46         5.9080   -4.6540   -0.3070 c         1 MOL      0.450141
    137 O20         6.3970   -5.5220   -0.9500 o         1 MOL     -0.518744
    138 C47         7.6200   -4.1740    1.5230 c3        1 MOL     -0.091850
    139 C48         6.6960   -3.8010    2.7370 c3        1 MOL      0.031223
    140 C49         6.3020   -2.4050    2.2350 c3        1 MOL     -0.354678
    141 H60         7.5510   -3.2830   -0.4130 h1        1 MOL      0.070617
    142 H61         7.6190   -5.2550    1.4620 hc        1 MOL      0.055630
    143 H62         8.5900   -3.7320    1.7440 hc        1 MOL      0.055630
    144 H63         5.8760   -4.5200    2.7400 hc        1 MOL      0.028138
    145 H64         7.3490   -3.9010    3.5970 hc        1 MOL      0.028138
    146 H65         5.3720   -2.0300    2.6520 h1        1 MOL      0.102182
    147 H66         7.1430   -1.7710    2.4990 h1        1 MOL      0.102182
    148 N13         4.5770   -4.4980   -0.1810 n         1 MOL     -0.104396
    149 C50         3.6900   -5.3680   -0.9080 c3        1 MOL     -0.328432
    150 C51         3.6420   -5.0010   -2.4190 c         1 MOL      0.432244
    151 O21         3.1880   -5.8840   -3.1940 o         1 MOL     -0.554861
    152 C52         2.2380   -5.1490   -0.2630 c3        1 MOL      0.403079
    153 C53         1.7910   -5.9440    0.8470 c3        1 MOL     -0.200429
    154 C54         0.4360   -5.4280    1.3430 c         1 MOL      0.750097
    155 O22        -0.6550   -5.8700    0.9290 o         1 MOL     -0.773812
    156 O23         0.3990   -4.4780    2.1600 o         1 MOL     -0.773812
    157 H67         4.1780   -3.7850    0.4110 hn        1 MOL      0.151976
    158 H68         3.8750   -6.4400   -0.8520 h1        1 MOL      0.139354
    159 H69         1.5750   -5.4310   -1.0780 hc        1 MOL     -0.055008
    160 H70         2.0210   -4.0860   -0.2090 hc        1 MOL     -0.055008
    161 H71         2.5870   -5.8820    1.5890 hc        1 MOL     -0.004733
    162 H72         1.6650   -6.9720    0.5050 hc        1 MOL     -0.004733
    163 N14         4.1340   -3.8500   -2.8000 n         1 MOL     -0.035160
    164 C55         4.1280   -3.4440   -4.2190 c3        1 MOL     -0.260500
    165 H73         4.1110   -2.3570   -4.2850 h1        1 MOL      0.094560
    166 H74         5.0240   -3.8240   -4.7090 h1        1 MOL      0.094560
    167 H75         3.2450   -3.8510   -4.7100 h1        1 MOL      0.094560
    168 H76         4.4440   -3.1950   -2.0980 hn        1 MOL      0.078008
    169 Ca1        -2.1470   -3.8670    1.1370 Ca        1 MOL      1.711685
    170 O24        -3.1090   -5.5160   -0.7440 oh        1 MOL     -0.788955
    171 H77        -3.7220   -6.2510   -0.6670 ho        1 MOL      0.391952
    172 H78        -2.3260   -5.9030   -1.1400 ho        1 MOL      0.391952
    173 O25        -3.5890   -2.0180   -0.3950 oh        1 MOL     -0.788955
    174 H79        -3.4790   -1.0800   -0.4960 ho        1 MOL      0.391952
    175 H80        -4.4550   -2.2090   -0.7380 ho        1 MOL      0.391952
    176 O26        -2.6560   -6.0050    2.8210 oh        1 MOL     -0.788955
    177 H81        -3.1320   -6.1040    3.6370 ho        1 MOL      0.391952
    178 H82        -2.0720   -6.7640    2.7810 ho        1 MOL      0.391952
    179 O27        -4.8370   -4.2970    1.5710 oh        1 MOL     -0.788955
    180 H83        -5.7380   -4.4310    1.2760 ho        1 MOL      0.391952
    181 H84        -4.7650   -4.7950    2.3830 ho        1 MOL      0.391952
@<TRIPOS>BOND
     1    1    2 1   
     2    1    4 1   
     3    1    5 1   
     4    1    6 1   
     5    2    3 2   
     6    2    7 1   
     7    7    8 1   
     8    7   15 1   
     9    8    9 1   
    10    8   11 1   
    11    8   16 1   
    12    9   10 2   
    13    9   19 1   
    14   11   12 1   
    15   11   17 1   
    16   11   18 1   
    17   12   13 1   
    18   12   14 1   
    19   19   20 1   
    20   19   24 1   
    21   20   21 1   
    22   20   23 1   
    23   20   25 1   
    24   21   22 2   
    25   21   29 1   
    26   23   26 1   
    27   23   27 1   
    28   23   28 1   
    29   29   30 1   
    30   29   37 1   
    31   30   31 1   
    32   30   33 1   
    33   30   38 1   
    34   31   32 2   
    35   31   41 1   
    36   33   34 1   
    37   33   39 1   
    38   33   40 1   
    39   34   35 1   
    40   34   36 1   
    41   41   42 1   
    42   41   45 1   
    43   42   43 1   
    44   42   46 1   
    45   42   47 1   
    46   43   44 2   
    47   43   48 1   
    48   48   49 1   
    49   48   56 1   
    50   49   50 1   
    51   49   52 1   
    52   49   57 1   
    53   50   51 2   
    54   50   62 1   
    55   52   53 1   
    56   52   58 1   
    57   52   59 1   
    58   53   54 1   
    59   53   55 2   
    60   54   60 1   
    61   54   61 1   
    62   62   63 1   
    63   62   66 1   
    64   63   64 1   
    65   63   67 1   
    66   63   68 1   
    67   64   65 2   
    68   64   69 1   
    69   69   70 1   
    70   69   76 1   
    71   70   71 1   
    72   70   73 1   
    73   70   77 1   
    74   71   72 2   
    75   71   83 1   
    76   73   74 1   
    77   73   75 1   
    78   73   78 1   
    79   74   80 1   
    80   74   81 1   
    81   74   82 1   
    82   75   79 1   
    83   83   84 1   
    84   83   91 1   
    85   84   85 1   
    86   84   87 1   
    87   84   92 1   
    88   85   86 2   
    89   85  102 1   
    90   87   88 1   
    91   87   89 1   
    92   87   93 1   
    93   88   90 1   
    94   88   94 1   
    95   88   95 1   
    96   89   96 1   
    97   89   97 1   
    98   89   98 1   
    99   90   99 1   
   100   90  100 1   
   101   90  101 1   
   102  102  103 1   
   103  102  110 1   
   104  103  104 1   
   105  103  106 1   
   106  103  111 1   
   107  104  105 2   
   108  104  114 1   
   109  106  107 1   
   110  106  112 1   
   111  106  113 1   
   112  107  108 1   
   113  107  109 1   
   114  114  115 1   
   115  114  125 1   
   116  115  116 1   
   117  115  118 1   
   118  115  126 1   
   119  116  117 2   
   120  116  134 1   
   121  118  119 1   
   122  118  127 1   
   123  118  128 1   
   124  119  120 ar  
   125  119  121 ar  
   126  120  122 ar  
   127  120  129 1   
   128  121  123 ar  
   129  121  130 1   
   130  122  124 ar  
   131  122  131 1   
   132  123  124 ar  
   133  123  132 1   
   134  124  133 1   
   135  134  135 1   
   136  134  140 1   
   137  135  136 1   
   138  135  138 1   
   139  135  141 1   
   140  136  137 2   
   141  136  148 1   
   142  138  139 1   
   143  138  142 1   
   144  138  143 1   
   145  139  140 1   
   146  139  144 1   
   147  139  145 1   
   148  140  146 1   
   149  140  147 1   
   150  148  149 1   
   151  148  157 1   
   152  149  150 1   
   153  149  152 1   
   154  149  158 1   
   155  150  151 2   
   156  150  163 1   
   157  152  153 1   
   158  152  159 1   
   159  152  160 1   
   160  153  154 1   
   161  153  161 1   
   162  153  162 1   
   163  154  155 1   
   164  154  156 1   
   165  163  164 1   
   166  163  168 1   
   167  164  165 1   
   168  164  166 1   
   169  164  167 1   
   170  170  171 1   
   171  170  172 1   
   172  173  174 1   
   173  173  175 1   
   174  176  177 1   
   175  176  178 1   
   176  179  180 1   
   177  179  181 1   
@<TRIPOS>SUBSTRUCTURE
     1 MOL         1 TEMP              0 ****  ****    0 ROOT
