@<TRIPOS>MOLECULE
MOL
  188   182     1     0     0
SMALL
resp


@<TRIPOS>ATOM
      1 C1         -6.3230   -2.3960    2.7240 c3        1 MOL     -0.466199
      2 C2         -7.0270   -2.1550    1.3640 c         1 MOL      0.519710
      3 O1         -6.4600   -1.8050    0.3440 o         1 MOL     -0.459247
      4 H1         -6.8840   -3.1350    3.2970 hc        1 MOL      0.126969
      5 H2         -5.3110   -2.7630    2.5500 hc        1 MOL      0.126969
      6 H3         -6.2800   -1.4610    3.2820 hc        1 MOL      0.126969
      7 N1         -8.3800   -2.3770    1.3160 n         1 MOL     -0.424946
      8 C3         -9.3070   -2.1850    0.2130 c3        1 MOL      0.228898
      9 C4         -9.0530   -0.8520   -0.4620 c         1 MOL      0.256792
     10 O2         -9.1280   -0.7180   -1.7060 o         1 MOL     -0.443342
     11 C5         -9.3360   -3.3630   -0.7580 c3        1 MOL     -0.301442
     12 C6        -10.6790   -3.6290   -1.3940 c         1 MOL      0.707428
     13 O3        -10.7750   -4.5930   -2.2110 o         1 MOL     -0.663436
     14 O4        -11.7030   -2.9690   -1.0730 o         1 MOL     -0.663436
     15 H4         -8.7510   -2.7010    2.2050 hn        1 MOL      0.267167
     16 H5        -10.2100   -2.1990    0.8230 h1        1 MOL      0.012481
     17 H6         -9.1120   -4.3300   -0.2830 hc        1 MOL      0.097568
     18 H7         -8.5510   -3.1720   -1.4880 hc        1 MOL      0.097568
     19 N2         -8.7630    0.1820    0.3230 n         1 MOL     -0.229675
     20 C7         -8.5430    1.6300   -0.0550 c3        1 MOL      0.105859
     21 C8         -7.0720    2.0490    0.0760 c         1 MOL      0.609715
     22 O5         -6.7930    3.2440    0.0510 o         1 MOL     -0.623146
     23 C9         -9.5150    2.7140    0.5920 c3        1 MOL     -0.160010
     24 C10       -10.9940    2.2870    0.3830 c3        1 MOL      0.076521
     25 C11       -11.8860    3.3270    1.0920 c3        1 MOL     -0.151393
     26 C12       -12.0830    3.1560    2.5890 c3        1 MOL      0.140347
     27 N3        -12.8240    4.2380    3.2930 n4        1 MOL     -0.206237
     28 H8         -8.7560    0.0070    1.3190 hn        1 MOL      0.151186
     29 H9         -8.6920    1.6630   -1.1300 h1        1 MOL      0.087062
     30 H10        -9.3270    3.6220    0.0240 hc        1 MOL      0.053723
     31 H11        -9.4080    2.8890    1.6650 hc        1 MOL      0.053723
     32 H12       -11.2270    1.2830    0.7430 hc        1 MOL      0.041097
     33 H13       -11.2920    2.3880   -0.6620 hc        1 MOL      0.041097
     34 H14       -12.8750    3.2940    0.6400 hc        1 MOL      0.058321
     35 H15       -11.4020    4.2990    0.9940 hc        1 MOL      0.058321
     36 H16       -11.1160    3.0760    3.0860 hx        1 MOL      0.033953
     37 H17       -12.6190    2.2170    2.7750 hx        1 MOL      0.033953
     38 H18       -13.7370    4.4960    2.9690 hn        1 MOL      0.209529
     39 H19       -12.8280    4.0920    4.2870 hn        1 MOL      0.209529
     40 H20       -12.4120    5.1520    3.1440 hn        1 MOL      0.209529
     41 N4         -6.0950    1.1010    0.1760 n         1 MOL     -0.688605
     42 C13        -4.6570    1.5370    0.3180 c3        1 MOL      0.286034
     43 C14        -4.1830    2.1910   -1.0540 c         1 MOL      0.656565
     44 O6         -4.4870    1.5980   -2.0810 o         1 MOL     -0.541204
     45 C15        -3.7330    0.3760    0.7120 c3        1 MOL     -0.313402
     46 C16        -2.3410    0.9240    1.0420 c         1 MOL      0.680341
     47 O7         -1.8980    0.7760    2.2000 o         1 MOL     -0.720399
     48 O8         -1.6760    1.4220    0.1280 o         1 MOL     -0.720399
     49 H21        -6.3680    0.1360    0.1170 hn        1 MOL      0.362396
     50 H22        -4.5460    2.3680    1.0090 h1        1 MOL     -0.021223
     51 H23        -3.5700   -0.2120   -0.1880 hc        1 MOL      0.098702
     52 H24        -4.1550   -0.1880    1.5470 hc        1 MOL      0.098702
     53 N5         -3.6850    3.3890   -1.0240 n         1 MOL     -0.312904
     54 C17        -3.5010    4.1870   -2.2660 c3        1 MOL     -0.190949
     55 C18        -2.3780    3.6530   -3.2210 c         1 MOL      0.466539
     56 O9         -2.2500    4.2980   -4.3210 o         1 MOL     -0.542849
     57 H25        -3.4240    3.8920   -0.1820 hn        1 MOL      0.262974
     58 H26        -3.3650    5.2320   -1.9690 h1        1 MOL      0.129707
     59 H27        -4.4190    4.0310   -2.8210 h1        1 MOL      0.129707
     60 N6         -1.7100    2.5500   -2.8800 n         1 MOL     -0.088771
     61 C19        -0.8800    1.7560   -3.6890 c3        1 MOL     -0.018685
     62 C20        -1.0410    0.2430   -3.3450 c         1 MOL      0.288893
     63 O10        -0.1020   -0.4520   -3.0950 o         1 MOL     -0.230166
     64 C21         0.6090    2.3280   -3.4950 c3        1 MOL     -0.333384
     65 C22         1.3890    1.8630   -2.2280 c         1 MOL      0.698475
     66 N7          2.6710    1.6420   -2.3340 n         1 MOL     -0.824916
     67 O11         0.8360    1.6500   -1.1820 o         1 MOL     -0.497733
     68 H28        -1.8410    2.1860   -1.9460 hn        1 MOL      0.001387
     69 H29        -1.2320    1.8580   -4.7100 h1        1 MOL      0.114326
     70 H30         0.5700    3.4200   -3.5500 hc        1 MOL      0.114810
     71 H31         1.1810    2.0060   -4.3720 hc        1 MOL      0.114810
     72 H32         3.1170    1.9480   -3.1860 hn        1 MOL      0.362925
     73 H33         3.1780    1.3750   -1.4920 hn        1 MOL      0.362925
     74 N8         -2.3430   -0.1700   -3.2140 n         1 MOL     -0.232448
     75 C23        -2.7160   -1.6260   -3.1070 c3        1 MOL     -0.241023
     76 C24        -2.2650   -2.4440   -1.8570 c         1 MOL      0.485582
     77 O12        -2.8220   -3.4960   -1.6270 o         1 MOL     -0.513631
     78 H34        -3.1030    0.4670   -3.3800 hn        1 MOL      0.252050
     79 H35        -2.3540   -2.2370   -3.9290 h1        1 MOL      0.152359
     80 H36        -3.7950   -1.7140   -3.0590 h1        1 MOL      0.152359
     81 N9         -1.4110   -1.9270   -0.9510 n         1 MOL     -0.186375
     82 C25        -0.6280   -2.7490    0.0520 c3        1 MOL     -0.004442
     83 C26         0.6780   -2.0220    0.4600 c         1 MOL      0.193544
     84 O13         0.6610   -0.8120    0.6590 o         1 MOL     -0.367954
     85 C27        -1.5300   -3.1330    1.2330 c3        1 MOL     -0.142216
     86 C28        -0.7300   -3.5280    2.4830 ca        1 MOL     -0.050119
     87 C29        -0.1990   -4.8310    2.6210 ca        1 MOL     -0.073063
     88 C30        -0.4200   -2.5120    3.3820 ca        1 MOL     -0.073063
     89 C31         0.6190   -5.1130    3.7300 ca        1 MOL     -0.315168
     90 C32         0.3330   -2.7990    4.5650 ca        1 MOL     -0.315168
     91 C33         0.8740   -4.0950    4.6960 ca        1 MOL      0.393669
     92 O14         1.6130   -4.3450    5.8350 oh        1 MOL     -0.505072
     93 H37        -1.0630   -1.0030   -1.1280 hn        1 MOL      0.167911
     94 H38        -0.4580   -3.6690   -0.5070 h1        1 MOL      0.072104
     95 H39        -2.0630   -4.0460    0.9490 hc        1 MOL      0.116133
     96 H40        -2.2480   -2.3350    1.4230 hc        1 MOL      0.116133
     97 H41        -0.5030   -5.6140    1.9470 ha        1 MOL      0.141547
     98 H42        -0.8160   -1.5100    3.2530 ha        1 MOL      0.141547
     99 H43         1.1060   -6.0780    3.8010 ha        1 MOL      0.155195
    100 H44         0.5020   -2.1040    5.3690 ha        1 MOL      0.155195
    101 H45         1.8940   -3.5950    6.3670 ho        1 MOL      0.364770
    102 N10         1.8080   -2.7540    0.6850 n         1 MOL     -0.250672
    103 C34         3.1690   -2.1140    0.7220 c3        1 MOL     -0.153041
    104 C35         3.3920   -1.4830   -0.6430 c         1 MOL      0.412805
    105 O15         3.8960   -0.3370   -0.7130 o         1 MOL     -0.504871
    106 C36         4.2630   -3.1080    1.1010 c3        1 MOL      0.206692
    107 C37         4.0440   -3.5350    2.6180 c3        1 MOL      0.194866
    108 C38         5.6860   -2.6860    0.8540 c3        1 MOL     -0.418521
    109 C39         4.8640   -4.7270    3.0710 c3        1 MOL     -0.104822
    110 H46         1.7420   -3.7440    0.4910 hn        1 MOL      0.261958
    111 H47         3.2230   -1.3260    1.4750 h1        1 MOL      0.056826
    112 H48         4.1780   -4.0390    0.5410 hc        1 MOL     -0.042050
    113 H49         2.9960   -3.8090    2.7910 hc        1 MOL     -0.047691
    114 H50         4.2650   -2.6950    3.2660 hc        1 MOL     -0.047691
    115 H51         6.0210   -1.7960    1.3860 hc        1 MOL      0.103622
    116 H52         6.3390   -3.5440    1.0490 hc        1 MOL      0.103622
    117 H53         5.8150   -2.3560   -0.1780 hc        1 MOL      0.103622
    118 H54         5.9170   -4.6680    2.7650 hc        1 MOL      0.026900
    119 H55         4.8250   -4.7540    4.1610 hc        1 MOL      0.026900
    120 H56         4.4880   -5.6740    2.6830 hc        1 MOL      0.026900
    121 N11         3.0110   -2.1890   -1.7820 n         1 MOL     -0.207911
    122 C40         3.2160   -1.7000   -3.1110 c3        1 MOL     -0.011310
    123 C41         4.6590   -1.5280   -3.6070 c         1 MOL      0.294503
    124 O16         4.8830   -0.4690   -4.2060 o         1 MOL     -0.465305
    125 C42         2.4060   -2.6220   -4.0470 c3        1 MOL      0.117463
    126 O17         1.0860   -2.7880   -3.5200 oh        1 MOL     -0.528646
    127 H57         2.4980   -3.0500   -1.6320 hn        1 MOL      0.219615
    128 H58         2.8130   -0.6850   -3.0780 h1        1 MOL      0.062787
    129 H59         3.0130   -3.5220   -4.0960 h1        1 MOL      0.053473
    130 H60         2.2570   -2.0770   -4.9770 h1        1 MOL      0.053473
    131 H61         0.8230   -1.8990   -3.2510 ho        1 MOL      0.262105
    132 N12         5.5860   -2.3160   -3.1440 n         1 MOL     -0.275353
    133 C43         7.0720   -2.0970   -3.2350 c3        1 MOL      0.131644
    134 C44         7.5420   -0.7370   -2.8050 c         1 MOL      0.519405
    135 O18         8.7300   -0.5400   -3.0770 o         1 MOL     -0.532847
    136 C45         7.4260   -2.4660   -4.6820 c3        1 MOL     -0.460867
    137 H62         5.3710   -3.1380   -2.6050 hn        1 MOL      0.238788
    138 H63         7.5270   -2.8350   -2.5750 h1        1 MOL      0.075439
    139 H64         6.9120   -3.4040   -4.9180 hc        1 MOL      0.140232
    140 H65         6.9880   -1.6310   -5.2330 hc        1 MOL      0.140232
    141 H66         8.4810   -2.5570   -4.9300 hc        1 MOL      0.140232
    142 N13         6.7990    0.0860   -2.0270 n         1 MOL     -0.503646
    143 C46         7.2310    1.3740   -1.4780 c3        1 MOL      0.248709
    144 C47         8.1290    1.1560   -0.2390 c         1 MOL      0.349201
    145 O19         7.8190    0.3280    0.5920 o         1 MOL     -0.401653
    146 C48         6.0980    2.3570   -1.2490 c3        1 MOL     -0.201642
    147 H67         5.8490   -0.1900   -1.8390 hn        1 MOL      0.344201
    148 H68         7.9280    1.8150   -2.1930 h1        1 MOL      0.020396
    149 H69         5.5390    2.5380   -2.1710 hc        1 MOL      0.064932
    150 H70         5.4730    1.9950   -0.4330 hc        1 MOL      0.064932
    151 H71         6.4790    3.3130   -0.8900 hc        1 MOL      0.064932
    152 N14         9.2090    1.9260   -0.0440 n         1 MOL     -0.411023
    153 C49        10.1060    1.9380    1.0980 c3        1 MOL     -0.074478
    154 C50        10.4390    0.5290    1.6810 c         1 MOL      0.459181
    155 O20        10.4340    0.3400    2.8940 o         1 MOL     -0.476750
    156 C51         9.4530    2.9000    2.1380 c3        1 MOL      0.233494
    157 C52         8.7960    4.1350    1.6080 c3        1 MOL     -0.129747
    158 C53         7.7710    4.6950    2.6510 c         1 MOL      0.695321
    159 O21         7.1620    3.9070    3.3730 o         1 MOL     -0.706442
    160 O22         7.4990    5.9170    2.6650 o         1 MOL     -0.706442
    161 H72         9.4910    2.5680   -0.7800 hn        1 MOL      0.281198
    162 H73        11.0370    2.3890    0.7630 h1        1 MOL      0.046723
    163 H74        10.0530    3.1030    3.0200 hc        1 MOL     -0.033270
    164 H75         8.7020    2.1840    2.4690 hc        1 MOL     -0.033270
    165 H76         8.2220    4.0000    0.6880 hc        1 MOL     -0.015890
    166 H77         9.5370    4.8960    1.3960 hc        1 MOL     -0.015890
    167 N15        10.8820   -0.4320    0.8210 n         1 MOL     -0.329028
    168 C54        11.2090   -1.7810    1.3380 c3        1 MOL     -0.157097
    169 H78        10.5180   -2.0410    2.1390 h1        1 MOL      0.088841
    170 H79        11.1220   -2.5100    0.5320 h1        1 MOL      0.088841
    171 H80        12.2290   -1.7860    1.7220 h1        1 MOL      0.088841
    172 H81        10.9520   -0.2540   -0.1730 hn        1 MOL      0.262878
    173 Ca1         0.4460    1.7670    1.4420 Ca        1 MOL      1.677787
    174 O23         1.9240    3.1410    3.4040 oh        1 MOL     -0.837999
    175 H82         2.1540    4.0000    3.7610 ho        1 MOL      0.420889
    176 H83         2.1650    2.5190    4.0900 ho        1 MOL      0.420889
    177 O24         3.2160    1.4650    1.1690 oh        1 MOL     -0.837999
    178 H84         4.0870    1.7870    1.3770 ho        1 MOL      0.420889
    179 H85         3.3760    0.7200    0.5800 ho        1 MOL      0.420889
    180 O25        -0.6640    3.8960    2.4390 oh        1 MOL     -0.837999
    181 H86        -1.3780    3.8430    3.0760 ho        1 MOL      0.420889
    182 H87        -0.1410    4.6420    2.7300 ho        1 MOL      0.420889
    183 O26         1.5490    4.0130    0.4300 oh        1 MOL     -0.837999
    184 H88         1.9920    4.3770   -0.3400 ho        1 MOL      0.420889
    185 H89         1.9220    4.4820    1.1710 ho        1 MOL      0.420889
    186 O27         1.0710    0.4900    3.6430 oh        1 MOL     -0.837999
    187 H90         2.0080    0.3180    3.5310 ho        1 MOL      0.420889
    188 H91         0.8830    0.1680    4.5190 ho        1 MOL      0.420889
@<TRIPOS>BOND
     1    1    2 1   
     2    1    4 1   
     3    1    5 1   
     4    1    6 1   
     5    2    3 2   
     6    2    7 1   
     7    7    8 1   
     8    7   15 1   
     9    8    9 1   
    10    8   11 1   
    11    8   16 1   
    12    9   10 2   
    13    9   19 1   
    14   11   12 1   
    15   11   17 1   
    16   11   18 1   
    17   12   13 1   
    18   12   14 1   
    19   19   20 1   
    20   19   28 1   
    21   20   21 1   
    22   20   23 1   
    23   20   29 1   
    24   21   22 2   
    25   21   41 1   
    26   23   24 1   
    27   23   30 1   
    28   23   31 1   
    29   24   25 1   
    30   24   32 1   
    31   24   33 1   
    32   25   26 1   
    33   25   34 1   
    34   25   35 1   
    35   26   27 1   
    36   26   36 1   
    37   26   37 1   
    38   27   38 1   
    39   27   39 1   
    40   27   40 1   
    41   41   42 1   
    42   41   49 1   
    43   42   43 1   
    44   42   45 1   
    45   42   50 1   
    46   43   44 2   
    47   43   53 1   
    48   45   46 1   
    49   45   51 1   
    50   45   52 1   
    51   46   47 1   
    52   46   48 1   
    53   53   54 1   
    54   53   57 1   
    55   54   55 1   
    56   54   58 1   
    57   54   59 1   
    58   55   56 2   
    59   55   60 1   
    60   60   61 1   
    61   60   68 1   
    62   61   62 1   
    63   61   64 1   
    64   61   69 1   
    65   62   63 2   
    66   62   74 1   
    67   64   65 1   
    68   64   70 1   
    69   64   71 1   
    70   65   66 1   
    71   65   67 2   
    72   66   72 1   
    73   66   73 1   
    74   74   75 1   
    75   74   78 1   
    76   75   76 1   
    77   75   79 1   
    78   75   80 1   
    79   76   77 2   
    80   76   81 1   
    81   81   82 1   
    82   81   93 1   
    83   82   83 1   
    84   82   85 1   
    85   82   94 1   
    86   83   84 2   
    87   83  102 1   
    88   85   86 1   
    89   85   95 1   
    90   85   96 1   
    91   86   87 ar  
    92   86   88 ar  
    93   87   89 ar  
    94   87   97 1   
    95   88   90 ar  
    96   88   98 1   
    97   89   91 ar  
    98   89   99 1   
    99   90   91 ar  
   100   90  100 1   
   101   91   92 1   
   102   92  101 1   
   103  102  103 1   
   104  102  110 1   
   105  103  104 1   
   106  103  106 1   
   107  103  111 1   
   108  104  105 2   
   109  104  121 1   
   110  106  107 1   
   111  106  108 1   
   112  106  112 1   
   113  107  109 1   
   114  107  113 1   
   115  107  114 1   
   116  108  115 1   
   117  108  116 1   
   118  108  117 1   
   119  109  118 1   
   120  109  119 1   
   121  109  120 1   
   122  121  122 1   
   123  121  127 1   
   124  122  123 1   
   125  122  125 1   
   126  122  128 1   
   127  123  124 2   
   128  123  132 1   
   129  125  126 1   
   130  125  129 1   
   131  125  130 1   
   132  126  131 1   
   133  132  133 1   
   134  132  137 1   
   135  133  134 1   
   136  133  136 1   
   137  133  138 1   
   138  134  135 2   
   139  134  142 1   
   140  136  139 1   
   141  136  140 1   
   142  136  141 1   
   143  142  143 1   
   144  142  147 1   
   145  143  144 1   
   146  143  146 1   
   147  143  148 1   
   148  144  145 2   
   149  144  152 1   
   150  146  149 1   
   151  146  150 1   
   152  146  151 1   
   153  152  153 1   
   154  152  161 1   
   155  153  154 1   
   156  153  156 1   
   157  153  162 1   
   158  154  155 2   
   159  154  167 1   
   160  156  157 1   
   161  156  163 1   
   162  156  164 1   
   163  157  158 1   
   164  157  165 1   
   165  157  166 1   
   166  158  159 1   
   167  158  160 1   
   168  167  168 1   
   169  167  172 1   
   170  168  169 1   
   171  168  170 1   
   172  168  171 1   
   173  174  175 1   
   174  174  176 1   
   175  177  178 1   
   176  177  179 1   
   177  180  181 1   
   178  180  182 1   
   179  183  184 1   
   180  183  185 1   
   181  186  187 1   
   182  186  188 1   
@<TRIPOS>SUBSTRUCTURE
     1 MOL         1 TEMP              0 ****  ****    0 ROOT
