@<TRIPOS>MOLECULE
MOL
  175   173     1     0     0
SMALL
resp


@<TRIPOS>ATOM
      1 C1         -5.9430    7.5560    1.9210 c3        1 MOL     -0.371426
      2 C2         -6.9430    6.9370    0.9070 c         1 MOL      0.677044
      3 O1         -6.7140    7.1140   -0.3070 o         1 MOL     -0.582897
      4 H1         -5.0780    6.9000    2.0230 hc        1 MOL      0.087747
      5 H2         -5.6180    8.5330    1.5610 hc        1 MOL      0.087747
      6 H3         -6.4300    7.6680    2.8890 hc        1 MOL      0.087747
      7 N1         -7.8950    6.1560    1.4140 n         1 MOL     -0.597130
      8 C3         -8.8500    5.3870    0.6430 c3        1 MOL      0.328818
      9 C4         -8.4660    4.0040    0.0900 c         1 MOL      0.568676
     10 O2         -9.0860    3.0040    0.4610 o         1 MOL     -0.516795
     11 C5        -10.1090    5.3400    1.5550 c3        1 MOL     -0.316666
     12 C6        -11.2990    4.9440    0.5930 c         1 MOL      0.724061
     13 O3        -12.3010    4.5150    1.2040 o         1 MOL     -0.723013
     14 O4        -11.3170    5.0460   -0.6860 o         1 MOL     -0.723013
     15 H4         -7.8900    5.9860    2.4090 hn        1 MOL      0.305599
     16 H5         -9.1490    6.0050   -0.2050 h1        1 MOL     -0.004518
     17 H6        -10.3590    6.3240    1.9560 hc        1 MOL      0.045059
     18 H7         -9.9690    4.6020    2.3460 hc        1 MOL      0.045059
     19 N2         -7.3860    3.9530   -0.7260 n         1 MOL     -0.792122
     20 C7         -6.7650    2.7400   -1.3420 c3        1 MOL      0.754808
     21 C8         -5.3520    2.5260   -0.7600 c         1 MOL      0.373254
     22 O5         -4.6610    3.4580   -0.2270 o         1 MOL     -0.493955
     23 C9         -6.7950    2.9360   -2.8740 c3        1 MOL     -0.272836
     24 H8         -6.8790    4.8010   -0.9060 hn        1 MOL      0.304595
     25 H9         -7.3800    1.8780   -1.0890 h1        1 MOL     -0.074214
     26 H10        -6.3950    3.9010   -3.2060 hc        1 MOL      0.055660
     27 H11        -6.1220    2.2640   -3.4000 hc        1 MOL      0.055660
     28 H12        -7.8500    2.7500   -3.1040 hc        1 MOL      0.055660
     29 N3         -4.9460    1.2180   -0.6800 n         1 MOL     -0.596533
     30 C10        -5.3360    0.1430   -1.6170 c3        1 MOL      0.048804
     31 C11        -5.6420   -1.2160   -0.9110 c         1 MOL      0.623726
     32 O6         -5.0540   -1.4620    0.1230 o         1 MOL     -0.566995
     33 C12        -4.4030    0.0950   -2.7600 c3        1 MOL     -0.148706
     34 C13        -2.9840   -0.3330   -2.4050 c         1 MOL      0.711406
     35 O7         -2.2480    0.4260   -1.8210 o         1 MOL     -0.733039
     36 O8         -2.5560   -1.4630   -2.6670 o         1 MOL     -0.733039
     37 H13        -4.1600    1.0680   -0.0600 hn        1 MOL      0.368955
     38 H14        -6.2590    0.4700   -2.0890 h1        1 MOL      0.016753
     39 H15        -4.2690    1.1090   -3.1290 hc        1 MOL      0.035361
     40 H16        -4.7560   -0.4820   -3.6180 hc        1 MOL      0.035361
     41 N4         -6.4430   -2.0750   -1.5130 n         1 MOL     -0.500537
     42 C14        -7.0620   -3.3470   -0.9170 c3        1 MOL      0.031244
     43 C15        -6.7610   -4.4950   -1.9230 c         1 MOL      0.527221
     44 O9         -7.7080   -5.0380   -2.4780 o         1 MOL     -0.573827
     45 H17        -6.9150   -1.7720   -2.3520 hn        1 MOL      0.312769
     46 H18        -8.1430   -3.2960   -0.7970 h1        1 MOL      0.068953
     47 H19        -6.5350   -3.5180    0.0240 h1        1 MOL      0.068953
     48 N5         -5.5380   -4.8700   -2.0870 n         1 MOL     -0.469695
     49 C16        -4.3170   -4.4810   -1.3640 c3        1 MOL     -0.044414
     50 C17        -4.2300   -5.1460    0.0370 c         1 MOL      0.636037
     51 O10        -4.4840   -6.3180    0.1370 o         1 MOL     -0.568052
     52 C18        -3.1500   -4.9530   -2.2530 c3        1 MOL     -0.088975
     53 C19        -1.7680   -4.4250   -1.8730 c         1 MOL      0.440384
     54 N6         -0.9080   -4.7930   -2.7680 n         1 MOL     -0.619224
     55 O11        -1.4670   -3.6200   -1.0110 o         1 MOL     -0.548958
     56 H20        -5.5010   -5.6750   -2.7010 hn        1 MOL      0.305938
     57 H21        -4.3630   -3.4060   -1.2310 h1        1 MOL      0.110534
     58 H22        -3.4210   -4.7480   -3.2900 hc        1 MOL      0.061523
     59 H23        -3.1080   -6.0440   -2.2950 hc        1 MOL      0.061523
     60 H24        -1.2670   -5.3800   -3.5120 hn        1 MOL      0.331638
     61 H25         0.0530   -4.5540   -2.5680 hn        1 MOL      0.331638
     62 N7         -3.8930   -4.3180    1.0350 n         1 MOL     -0.230107
     63 C20        -3.7560   -4.5920    2.4980 c3        1 MOL     -0.413234
     64 C21        -2.3340   -5.1160    2.8510 c         1 MOL      0.689639
     65 O12        -2.1130   -5.6910    3.8940 o         1 MOL     -0.589704
     66 H26        -3.6050   -3.3760    0.7790 hn        1 MOL      0.265390
     67 H27        -4.4380   -5.4230    2.6970 h1        1 MOL      0.160639
     68 H28        -3.9020   -3.6550    3.0450 h1        1 MOL      0.160639
     69 N8         -1.3170   -4.8700    2.0120 n         1 MOL     -0.414133
     70 C22         0.1500   -4.8580    2.3540 c3        1 MOL     -0.056874
     71 C23         0.7030   -3.4430    2.0330 c         1 MOL      0.446992
     72 O13         0.1790   -2.7100    1.2440 o         1 MOL     -0.486624
     73 C24         0.8850   -5.9450    1.5380 c3        1 MOL      0.488622
     74 C25         0.4900   -7.2620    2.1120 c3        1 MOL     -0.324143
     75 O14         0.6370   -5.8460    0.1160 oh        1 MOL     -0.671530
     76 H29        -1.5720   -4.7600    1.0370 hn        1 MOL      0.252793
     77 H30         0.2400   -5.0860    3.4200 h1        1 MOL      0.087950
     78 H31         1.9480   -5.7950    1.7010 h1        1 MOL     -0.063061
     79 H32         1.1630   -5.1690   -0.3240 ho        1 MOL      0.488332
     80 H33        -0.5890   -7.2700    2.2730 hc        1 MOL      0.072111
     81 H34         0.7820   -8.0330    1.4020 hc        1 MOL      0.072111
     82 H35         0.9560   -7.4150    3.0820 hc        1 MOL      0.072111
     83 N9          1.7200   -3.0740    2.7960 n         1 MOL     -0.274910
     84 C26         2.6920   -2.0850    2.4690 c3        1 MOL     -0.031789
     85 C27         3.7970   -2.6730    1.4750 c         1 MOL      0.681573
     86 O15         4.4980   -3.5980    1.8630 o         1 MOL     -0.590267
     87 C28         3.3150   -1.5470    3.7490 c3        1 MOL      0.049487
     88 C29         2.4250   -0.4280    4.2410 c3        1 MOL     -0.043020
     89 C30         3.6170   -2.5710    4.8870 c3        1 MOL     -0.050843
     90 C31         3.0640    0.3020    5.4860 c3        1 MOL     -0.448367
     91 H36         2.0510   -3.7470    3.4810 hn        1 MOL      0.184503
     92 H37         2.1650   -1.2490    2.0110 h1        1 MOL     -0.069333
     93 H38         4.2870   -1.0950    3.5060 hc        1 MOL     -0.003027
     94 H39         1.4900   -0.9320    4.4890 hc        1 MOL      0.079109
     95 H40         2.1390    0.4110    3.6010 hc        1 MOL      0.079109
     96 H41         4.0020   -2.0720    5.7780 hc        1 MOL      0.016281
     97 H42         2.6310   -2.9490    5.1540 hc        1 MOL      0.016281
     98 H43         4.3150   -3.3580    4.6080 hc        1 MOL      0.016281
     99 H44         2.8210   -0.2090    6.4280 hc        1 MOL      0.117435
    100 H45         4.1240    0.4940    5.3550 hc        1 MOL      0.117435
    101 H46         2.6370    1.3050    5.4450 hc        1 MOL      0.117435
    102 N10         3.9730   -2.0550    0.3020 n         1 MOL     -0.626457
    103 C32         4.7720   -2.6430   -0.8060 c3        1 MOL      0.155023
    104 C33         5.9790   -1.7400   -1.2730 c         1 MOL      0.434077
    105 O16         6.4800   -1.9530   -2.3280 o         1 MOL     -0.503001
    106 C34         3.8880   -2.8580   -1.9840 c3        1 MOL     -0.130271
    107 C35         2.4780   -3.4470   -1.7300 c         1 MOL      0.731671
    108 O17         2.2480   -4.7000   -1.6980 o         1 MOL     -0.747912
    109 O18         1.5870   -2.7010   -1.4600 o         1 MOL     -0.747912
    110 H47         3.4040   -1.2400    0.1650 hn        1 MOL      0.394434
    111 H48         5.0970   -3.6030   -0.4190 h1        1 MOL      0.077356
    112 H49         4.4680   -3.5610   -2.5830 hc        1 MOL      0.026951
    113 H50         3.7830   -1.9850   -2.6190 hc        1 MOL      0.026951
    114 N11         6.2480   -0.6290   -0.5430 n         1 MOL     -0.338719
    115 C36         7.1820    0.4220   -1.0080 c3        1 MOL      0.113117
    116 C37         6.7360    1.7430   -0.4970 c         1 MOL      0.479180
    117 O19         6.3540    1.9240    0.6600 o         1 MOL     -0.486703
    118 C38         8.5920    0.1030   -0.5800 c3        1 MOL     -0.450846
    119 C39         9.6480    1.1060   -0.9830 ca        1 MOL      0.234216
    120 C40         9.8360    2.3120   -0.3170 ca        1 MOL     -0.193156
    121 C41        10.5570    0.7240   -2.0300 ca        1 MOL     -0.193156
    122 C42        10.7680    3.2710   -0.7770 ca        1 MOL     -0.121654
    123 C43        11.6620    1.5380   -2.3140 ca        1 MOL     -0.121654
    124 C44        11.6690    2.8210   -1.7130 ca        1 MOL     -0.099415
    125 H51         5.7110   -0.4300    0.2860 hn        1 MOL      0.196370
    126 H52         7.0600    0.3010   -2.0830 h1        1 MOL      0.074867
    127 H53         8.8270   -0.8770   -0.9940 hc        1 MOL      0.159690
    128 H54         8.6030    0.0520    0.5070 hc        1 MOL      0.159690
    129 H55         9.1850    2.5700    0.5050 ha        1 MOL      0.127555
    130 H56        10.3510   -0.1560   -2.6220 ha        1 MOL      0.127555
    131 H57        10.7970    4.2410   -0.3130 ha        1 MOL      0.117658
    132 H58        12.4090    1.3630   -3.0820 ha        1 MOL      0.117658
    133 H59        12.4610    3.4830   -2.0420 ha        1 MOL      0.082973
    134 N12         6.8390    2.8330   -1.2880 n         1 MOL     -0.080472
    135 C45         6.9260    4.2120   -0.8090 c3        1 MOL     -0.291779
    136 C46         5.5980    4.7200   -0.2360 c         1 MOL      0.701721
    137 O20         5.5770    5.7610    0.3690 o         1 MOL     -0.594085
    138 C47         7.3400    5.0760   -2.0240 c3        1 MOL      0.032876
    139 C48         6.9030    4.2830   -3.2390 c3        1 MOL     -0.189413
    140 C49         7.1730    2.8980   -2.6870 c3        1 MOL     -0.342833
    141 H60         7.6380    4.1990    0.0150 h1        1 MOL      0.142065
    142 H61         7.0790    6.1380   -2.0040 hc        1 MOL      0.059171
    143 H62         8.4230    5.1300   -1.9900 hc        1 MOL      0.059171
    144 H63         5.8520    4.4940   -3.4290 hc        1 MOL      0.103414
    145 H64         7.5970    4.3970   -4.0740 hc        1 MOL      0.103414
    146 H65         6.5420    2.1250   -3.1320 h1        1 MOL      0.155847
    147 H66         8.1990    2.6590   -2.9410 h1        1 MOL      0.155847
    148 N13         4.5100    3.9650   -0.2310 n         1 MOL     -0.496040
    149 C50         3.3100    4.3000    0.5760 c3        1 MOL     -0.032365
    150 C51         3.5530    4.4150    2.1140 c         1 MOL      0.475939
    151 O21         2.7180    4.8990    2.8920 o         1 MOL     -0.523532
    152 C52         2.2440    3.2240    0.2560 c3        1 MOL     -0.193227
    153 C53         2.4580    1.8640    0.9890 c3        1 MOL     -0.067366
    154 C54         1.4560    0.8380    0.4860 c         1 MOL      0.799664
    155 O22         1.9400   -0.0680   -0.2510 o         1 MOL     -0.732426
    156 O23         0.2270    0.9570    0.6100 o         1 MOL     -0.732426
    157 H67         4.6050    3.0360   -0.6090 hn        1 MOL      0.308441
    158 H68         2.9030    5.2630    0.2830 h1        1 MOL      0.128466
    159 H69         2.3060    3.0270   -0.8210 hc        1 MOL      0.096166
    160 H70         1.3630    3.7580    0.6200 hc        1 MOL      0.096166
    161 H71         2.2340    1.9320    2.0550 hc        1 MOL      0.002060
    162 H72         3.4820    1.5420    0.8040 hc        1 MOL      0.002060
    163 N14         4.7230    3.9730    2.6400 n         1 MOL     -0.173027
    164 C55         5.0740    4.2530    4.0600 c3        1 MOL     -0.114933
    165 H73         6.1590    4.2880    4.1650 h1        1 MOL      0.067745
    166 H74         4.6490    5.2110    4.3580 h1        1 MOL      0.067745
    167 H75         4.6740    3.4630    4.6970 h1        1 MOL      0.067745
    168 H76         5.3790    3.5760    1.9860 hn        1 MOL      0.173740
    169 Ca1        -0.3300   -1.1380   -1.0070 Ca        1 MOL      1.796892
    170 O24         0.6480    0.2550   -2.9670 oh        1 MOL     -0.924297
    171 H77         0.1350    0.2470   -3.7770 ho        1 MOL      0.435850
    172 H78         1.3190    0.9290   -3.1240 ho        1 MOL      0.435850
    173 O25        -2.4210   -0.9380    0.7620 oh        1 MOL     -0.924297
    174 H79        -2.2320   -0.1530    1.2820 ho        1 MOL      0.435850
    175 H80        -3.3280   -1.1520    0.9730 ho        1 MOL      0.435850
@<TRIPOS>BOND
     1    1    2 1   
     2    1    4 1   
     3    1    5 1   
     4    1    6 1   
     5    2    3 2   
     6    2    7 1   
     7    7    8 1   
     8    7   15 1   
     9    8    9 1   
    10    8   11 1   
    11    8   16 1   
    12    9   10 2   
    13    9   19 1   
    14   11   12 1   
    15   11   17 1   
    16   11   18 1   
    17   12   13 1   
    18   12   14 1   
    19   19   20 1   
    20   19   24 1   
    21   20   21 1   
    22   20   23 1   
    23   20   25 1   
    24   21   22 2   
    25   21   29 1   
    26   23   26 1   
    27   23   27 1   
    28   23   28 1   
    29   29   30 1   
    30   29   37 1   
    31   30   31 1   
    32   30   33 1   
    33   30   38 1   
    34   31   32 2   
    35   31   41 1   
    36   33   34 1   
    37   33   39 1   
    38   33   40 1   
    39   34   35 1   
    40   34   36 1   
    41   41   42 1   
    42   41   45 1   
    43   42   43 1   
    44   42   46 1   
    45   42   47 1   
    46   43   44 2   
    47   43   48 1   
    48   48   49 1   
    49   48   56 1   
    50   49   50 1   
    51   49   52 1   
    52   49   57 1   
    53   50   51 2   
    54   50   62 1   
    55   52   53 1   
    56   52   58 1   
    57   52   59 1   
    58   53   54 1   
    59   53   55 2   
    60   54   60 1   
    61   54   61 1   
    62   62   63 1   
    63   62   66 1   
    64   63   64 1   
    65   63   67 1   
    66   63   68 1   
    67   64   65 2   
    68   64   69 1   
    69   69   70 1   
    70   69   76 1   
    71   70   71 1   
    72   70   73 1   
    73   70   77 1   
    74   71   72 2   
    75   71   83 1   
    76   73   74 1   
    77   73   75 1   
    78   73   78 1   
    79   74   80 1   
    80   74   81 1   
    81   74   82 1   
    82   75   79 1   
    83   83   84 1   
    84   83   91 1   
    85   84   85 1   
    86   84   87 1   
    87   84   92 1   
    88   85   86 2   
    89   85  102 1   
    90   87   88 1   
    91   87   89 1   
    92   87   93 1   
    93   88   90 1   
    94   88   94 1   
    95   88   95 1   
    96   89   96 1   
    97   89   97 1   
    98   89   98 1   
    99   90   99 1   
   100   90  100 1   
   101   90  101 1   
   102  102  103 1   
   103  102  110 1   
   104  103  104 1   
   105  103  106 1   
   106  103  111 1   
   107  104  105 2   
   108  104  114 1   
   109  106  107 1   
   110  106  112 1   
   111  106  113 1   
   112  107  108 1   
   113  107  109 1   
   114  114  115 1   
   115  114  125 1   
   116  115  116 1   
   117  115  118 1   
   118  115  126 1   
   119  116  117 2   
   120  116  134 1   
   121  118  119 1   
   122  118  127 1   
   123  118  128 1   
   124  119  120 ar  
   125  119  121 ar  
   126  120  122 ar  
   127  120  129 1   
   128  121  123 ar  
   129  121  130 1   
   130  122  124 ar  
   131  122  131 1   
   132  123  124 ar  
   133  123  132 1   
   134  124  133 1   
   135  134  135 1   
   136  134  140 1   
   137  135  136 1   
   138  135  138 1   
   139  135  141 1   
   140  136  137 2   
   141  136  148 1   
   142  138  139 1   
   143  138  142 1   
   144  138  143 1   
   145  139  140 1   
   146  139  144 1   
   147  139  145 1   
   148  140  146 1   
   149  140  147 1   
   150  148  149 1   
   151  148  157 1   
   152  149  150 1   
   153  149  152 1   
   154  149  158 1   
   155  150  151 2   
   156  150  163 1   
   157  152  153 1   
   158  152  159 1   
   159  152  160 1   
   160  153  154 1   
   161  153  161 1   
   162  153  162 1   
   163  154  155 1   
   164  154  156 1   
   165  163  164 1   
   166  163  168 1   
   167  164  165 1   
   168  164  166 1   
   169  164  167 1   
   170  170  171 1   
   171  170  172 1   
   172  173  174 1   
   173  173  175 1   
@<TRIPOS>SUBSTRUCTURE
     1 MOL         1 TEMP              0 ****  ****    0 ROOT
