@<TRIPOS>MOLECULE
MOL
  198   191     1     0     0
SMALL
resp


@<TRIPOS>ATOM
      1 C1         -2.8860    2.1190    4.0330 c3        1 MOL     -0.434413
      2 C2         -4.2010    1.3900    4.1550 c         1 MOL      0.673107
      3 O1         -4.3180    0.5150    4.9330 o         1 MOL     -0.555072
      4 H1         -2.8910    2.7270    3.1270 hc        1 MOL      0.108579
      5 H2         -2.7430    2.7620    4.9010 hc        1 MOL      0.108579
      6 H3         -2.0720    1.3950    3.9790 hc        1 MOL      0.108579
      7 N1         -5.1730    1.7860    3.3020 n         1 MOL     -0.381675
      8 C3         -6.5500    1.1950    3.2330 c3        1 MOL      0.007464
      9 C4         -6.7040    0.1230    2.1760 c         1 MOL      0.574986
     10 O2         -5.6740   -0.2980    1.7010 o         1 MOL     -0.481105
     11 C5         -7.5540    2.3620    3.1120 c3        1 MOL     -0.201728
     12 C6         -7.4500    3.1120    1.7530 c         1 MOL      0.620409
     13 O3         -8.0840    2.6740    0.7800 o         1 MOL     -0.722052
     14 O4         -6.5720    4.0110    1.5590 o         1 MOL     -0.722052
     15 H4         -5.0490    2.6210    2.7400 hn        1 MOL      0.214493
     16 H5         -6.7030    0.6980    4.1970 h1        1 MOL      0.057998
     17 H6         -7.2970    3.1290    3.8540 hc        1 MOL      0.057356
     18 H7         -8.5670    2.0960    3.3840 hc        1 MOL      0.057356
     19 N2         -7.9330   -0.3170    1.8540 n         1 MOL     -0.510022
     20 C7         -8.2980   -1.4140    0.9220 c3        1 MOL      0.081994
     21 C8         -7.9910   -1.0930   -0.5550 c         1 MOL      0.304291
     22 O5         -8.2330   -1.9490   -1.4250 o         1 MOL     -0.514077
     23 C9         -9.7270   -1.8070    1.2970 c3        1 MOL     -0.263565
     24 C10       -10.8610   -1.1130    0.5820 c3        1 MOL      0.228066
     25 C11       -12.2580   -1.4640    1.2180 c3        1 MOL     -0.127667
     26 C12       -13.2910   -0.5130    0.6610 c3        1 MOL      0.071692
     27 N3        -13.3470   -0.4910   -0.8360 n4        1 MOL     -0.450891
     28 H8         -8.6940    0.0680    2.3980 hn        1 MOL      0.260578
     29 H9         -7.6430   -2.2290    1.2360 h1        1 MOL      0.130658
     30 H10        -9.8440   -1.7670    2.3750 hc        1 MOL      0.076597
     31 H11        -9.9650   -2.8460    1.0790 hc        1 MOL      0.076597
     32 H12       -10.8600   -1.4490   -0.4480 hc        1 MOL      0.003900
     33 H13       -10.6370   -0.0470    0.5440 hc        1 MOL      0.003900
     34 H14       -12.3210   -1.3500    2.3000 hc        1 MOL      0.057630
     35 H15       -12.5050   -2.4870    0.9090 hc        1 MOL      0.057630
     36 H16       -13.1500    0.4860    1.0680 hx        1 MOL      0.069484
     37 H17       -14.2660   -0.8360    1.0100 hx        1 MOL      0.069484
     38 H18       -13.5220   -1.4120   -1.2070 hn        1 MOL      0.348890
     39 H19       -14.0230    0.2170   -1.0820 hn        1 MOL      0.348890
     40 H20       -12.4510   -0.1430   -1.1600 hn        1 MOL      0.348890
     41 N4         -7.4110    0.0810   -0.8100 n         1 MOL     -0.136387
     42 C13        -6.5790    0.4370   -1.9310 c3        1 MOL     -0.035784
     43 C14        -5.4490    1.3170   -1.4190 c         1 MOL      0.367344
     44 O6         -5.6400    2.2140   -0.5540 o         1 MOL     -0.516889
     45 C15        -7.3380    1.1070   -3.0750 c3        1 MOL     -0.186780
     46 C16        -8.3200    2.1170   -2.6100 c         1 MOL      0.727207
     47 O7         -9.5420    1.8980   -2.8000 o         1 MOL     -0.736164
     48 O8         -7.8380    3.2180   -2.2400 o         1 MOL     -0.736164
     49 H21        -7.4560    0.7440   -0.0520 hn        1 MOL      0.306607
     50 H22        -6.1370   -0.4610   -2.3540 h1        1 MOL      0.138932
     51 H23        -7.7950    0.3210   -3.6730 hc        1 MOL      0.054675
     52 H24        -6.5560    1.5610   -3.6840 hc        1 MOL      0.054675
     53 N5         -4.1860    1.2760   -1.8690 n         1 MOL     -0.448851
     54 C17        -3.6930    0.4240   -3.0170 c3        1 MOL     -0.071652
     55 C18        -3.3700   -0.9930   -2.4680 c         1 MOL      0.658607
     56 O9         -3.2770   -1.3540   -1.3070 o         1 MOL     -0.537169
     57 H25        -3.5400    1.8050   -1.3040 hn        1 MOL      0.344505
     58 H26        -2.8040    0.8420   -3.4770 h1        1 MOL      0.081001
     59 H27        -4.5190    0.3680   -3.7310 h1        1 MOL      0.081001
     60 N6         -3.1380   -1.8530   -3.4520 n         1 MOL     -0.454799
     61 C19        -2.8960   -3.3280   -3.2960 c3        1 MOL      0.122990
     62 C20        -1.6860   -3.9040   -2.5130 c         1 MOL      0.484073
     63 O10        -0.6280   -3.2290   -2.4480 o         1 MOL     -0.500852
     64 C21        -3.0040   -3.9970   -4.6850 c3        1 MOL     -0.033756
     65 C22        -2.0570   -3.3900   -5.7110 c         1 MOL      0.684193
     66 O11        -1.0540   -3.9860   -6.0870 o         1 MOL     -0.679677
     67 O12        -2.3470   -2.2430   -6.0850 o         1 MOL     -0.679677
     68 H28        -3.2000   -1.5850   -4.4240 hn        1 MOL      0.205692
     69 H29        -3.7340   -3.7690   -2.7510 h1        1 MOL     -0.017222
     70 H30        -4.0280   -3.9010   -5.0390 hc        1 MOL     -0.028291
     71 H31        -2.7410   -5.0570   -4.6270 hc        1 MOL     -0.028291
     72 N7         -1.7010   -5.1170   -1.9690 n         1 MOL     -0.303795
     73 C23        -0.5460   -5.7800   -1.4030 c3        1 MOL     -0.131107
     74 C24        -0.3580   -5.4450    0.0430 c         1 MOL      0.615927
     75 O13         0.2340   -6.2620    0.7170 o         1 MOL     -0.582423
     76 H32        -2.5200   -5.7110   -2.0020 hn        1 MOL      0.247631
     77 H33         0.3200   -5.4680   -1.9810 h1        1 MOL      0.089545
     78 H34        -0.6360   -6.8640   -1.3700 h1        1 MOL      0.089545
     79 N8         -0.9120   -4.3290    0.5120 n         1 MOL     -0.352302
     80 C25        -0.8750   -4.0790    1.9480 c3        1 MOL     -0.266610
     81 C26        -0.5160   -2.5790    2.0720 c         1 MOL      0.728117
     82 O14        -1.1590   -1.6590    1.5640 o         1 MOL     -0.497828
     83 C27        -2.2630   -4.2990    2.4990 c3        1 MOL      0.380305
     84 C28        -2.9940   -5.5810    2.0230 c3        1 MOL     -0.322710
     85 O15        -2.1000   -4.3120    3.8700 oh        1 MOL     -0.636414
     86 H35        -1.3260   -3.6090   -0.0590 hn        1 MOL      0.191989
     87 H36        -0.2000   -4.7300    2.5160 h1        1 MOL      0.148639
     88 H37        -2.8980   -3.4360    2.2870 h1        1 MOL      0.033962
     89 H38        -2.6930   -4.9990    4.1880 ho        1 MOL      0.383575
     90 H39        -3.9880   -5.7070    2.4520 hc        1 MOL      0.080543
     91 H40        -3.2140   -5.5270    0.9630 hc        1 MOL      0.080543
     92 H41        -2.4000   -6.4820    2.1320 hc        1 MOL      0.080543
     93 N9          0.6430   -2.3890    2.7640 n         1 MOL     -0.497714
     94 C29         1.3020   -1.1440    3.1170 c3        1 MOL     -0.006040
     95 C30         2.3670   -0.8720    1.9950 c         1 MOL      0.524654
     96 O16         2.3860    0.2080    1.4010 o         1 MOL     -0.514722
     97 C31         1.8840   -1.2130    4.4960 c3        1 MOL      0.223722
     98 C32         0.8200   -1.3010    5.5850 c3        1 MOL     -0.009295
     99 C33         2.6450    0.0790    4.7990 c3        1 MOL     -0.344136
    100 C34         1.4210   -2.0050    6.8230 c3        1 MOL     -0.426770
    101 H42         1.0780   -3.2490    3.1030 hn        1 MOL      0.248815
    102 H43         0.5940   -0.3210    2.9960 h1        1 MOL      0.081527
    103 H44         2.5620   -2.0530    4.5070 hc        1 MOL      0.005428
    104 H45        -0.0850   -1.8120    5.2270 hc        1 MOL      0.053588
    105 H46         0.4530   -0.3140    5.8640 hc        1 MOL      0.053588
    106 H47         3.6570   -0.1730    4.4920 hc        1 MOL      0.080251
    107 H48         2.1660    0.9250    4.2980 hc        1 MOL      0.080251
    108 H49         2.8660    0.2400    5.8520 hc        1 MOL      0.080251
    109 H50         1.7170   -3.0420    6.7220 hc        1 MOL      0.105017
    110 H51         2.2770   -1.4080    7.1490 hc        1 MOL      0.105017
    111 H52         0.7170   -2.0650    7.6540 hc        1 MOL      0.105017
    112 N10         3.0850   -1.9010    1.5710 n         1 MOL     -0.464860
    113 C35         4.0490   -1.7990    0.4170 c3        1 MOL     -0.005975
    114 C36         5.2060   -2.7440    0.7000 c         1 MOL      0.512287
    115 O17         5.1670   -3.7870    1.4260 o         1 MOL     -0.502492
    116 C37         3.3560   -2.0750   -0.9270 c3        1 MOL      0.397264
    117 C38         2.2450   -3.1530   -1.0030 c3        1 MOL     -0.330143
    118 O18         2.7300   -0.9410   -1.4450 oh        1 MOL     -0.607375
    119 H53         3.0630   -2.7930    2.0370 hn        1 MOL      0.267182
    120 H54         4.3910   -0.7620    0.4390 h1        1 MOL      0.108341
    121 H55         4.1540   -2.3200   -1.6220 h1        1 MOL     -0.066248
    122 H56         2.3180   -1.1630   -2.2820 ho        1 MOL      0.398550
    123 H57         1.9260   -3.2060   -2.0420 hc        1 MOL      0.097942
    124 H58         2.5240   -4.1640   -0.6990 hc        1 MOL      0.097942
    125 H59         1.4120   -2.8340   -0.3870 hc        1 MOL      0.097942
    126 N11         6.3320   -2.2650    0.1050 n         1 MOL     -0.478482
    127 C39         7.6500   -2.9450    0.2610 c3        1 MOL     -0.047002
    128 C40         8.8330   -2.0200    0.2340 c         1 MOL      0.654256
    129 O19         9.7310   -2.2410    1.0400 o         1 MOL     -0.554842
    130 C41         7.8050   -3.9640   -0.9160 c3        1 MOL      0.249976
    131 C42         9.0980   -4.7910   -0.9490 c3        1 MOL     -0.482390
    132 O20         7.8320   -3.2460   -2.1630 oh        1 MOL     -0.588855
    133 H60         6.2520   -1.3360   -0.2990 hn        1 MOL      0.282972
    134 H61         7.7030   -3.4220    1.2370 h1        1 MOL      0.117630
    135 H62         6.9640   -4.6500   -0.9070 h1        1 MOL      0.061341
    136 H63         7.0330   -3.5720   -2.5810 ho        1 MOL      0.394186
    137 H64         9.1290   -5.4560   -1.8200 hc        1 MOL      0.137761
    138 H65         9.9400   -4.1040   -1.0120 hc        1 MOL      0.137761
    139 H66         9.2070   -5.3440   -0.0170 hc        1 MOL      0.137761
    140 N12         8.8190   -0.9760   -0.6910 n         1 MOL     -0.606703
    141 C43         9.8750   -0.0070   -0.8150 c3        1 MOL      0.315211
    142 C44         9.2760    1.3430   -1.0830 c         1 MOL      0.458097
    143 O21         8.2740    1.5090   -1.7380 o         1 MOL     -0.478588
    144 C45        10.8520   -0.4210   -1.8900 c3        1 MOL     -0.375445
    145 C46        12.1140    0.3890   -1.9080 c3        1 MOL      0.067302
    146 C47        13.2590    0.1050   -0.9000 c3        1 MOL     -0.316314
    147 C48        14.2210    1.2920   -0.8780 c3        1 MOL      0.130177
    148 N13        15.3670    1.0890    0.0500 n4        1 MOL     -0.337343
    149 H67         7.9960   -0.9750   -1.2810 hn        1 MOL      0.293107
    150 H68        10.3890    0.1230    0.1380 h1        1 MOL     -0.051816
    151 H69        10.2750   -0.2820   -2.8000 hc        1 MOL      0.163762
    152 H70        11.1390   -1.4480   -1.6810 hc        1 MOL      0.163762
    153 H71        11.8570    1.4390   -1.8000 hc        1 MOL      0.025405
    154 H72        12.4680    0.2400   -2.9280 hc        1 MOL      0.025405
    155 H73        13.7330   -0.8430   -1.1720 hc        1 MOL      0.100912
    156 H74        12.8740    0.0000    0.1140 hc        1 MOL      0.100912
    157 H75        13.5560    2.1050   -0.5790 hx        1 MOL      0.064429
    158 H76        14.5680    1.6100   -1.8600 hx        1 MOL      0.064429
    159 H77        16.1680    1.6710   -0.1540 hn        1 MOL      0.315064
    160 H78        15.0090    1.2420    0.9760 hn        1 MOL      0.315064
    161 H79        15.5090    0.0920    0.1650 hn        1 MOL      0.315064
    162 N14         9.8980    2.3650   -0.5360 n         1 MOL     -0.448186
    163 C49         9.6630    3.8160   -0.8310 c3        1 MOL      0.234606
    164 C50         8.2250    4.2580   -0.4710 c         1 MOL      0.335847
    165 O22         7.5420    4.7920   -1.3110 o         1 MOL     -0.503099
    166 C51        10.6750    4.7000   -0.1210 c3        1 MOL     -0.235602
    167 C52        12.0720    4.3890   -0.5010 c3        1 MOL     -0.220567
    168 C53        13.0620    5.1840    0.3660 c         1 MOL      0.673543
    169 O23        13.7520    4.5300    1.1720 o         1 MOL     -0.696419
    170 O24        13.2760    6.3890    0.0970 o         1 MOL     -0.696419
    171 H80        10.6780    2.1180    0.0560 hn        1 MOL      0.330516
    172 H81         9.7570    3.8710   -1.9170 h1        1 MOL      0.047587
    173 H82        10.4580    4.5290    0.9320 hc        1 MOL      0.119646
    174 H83        10.4130    5.7310   -0.3680 hc        1 MOL      0.119646
    175 H84        12.2110    4.7060   -1.5370 hc        1 MOL      0.052599
    176 H85        12.3020    3.3390   -0.3110 hc        1 MOL      0.052599
    177 N15         7.5930    4.1060    0.7490 n         1 MOL     -0.342837
    178 C54         8.1340    3.6260    2.0540 c3        1 MOL      0.040286
    179 H86         7.6610    2.6800    2.3180 h1        1 MOL      0.015044
    180 H87         9.2120    3.4830    1.9710 h1        1 MOL      0.015044
    181 H88         7.9250    4.3650    2.8290 h1        1 MOL      0.015044
    182 H89         6.6320    4.4240    0.7500 hn        1 MOL      0.297581
    183 Ca1        -6.4550    4.7200   -0.8510 Ca        1 MOL      1.782653
    184 O25        -8.8930    5.8680   -0.6680 oh        1 MOL     -0.836048
    185 H90        -9.5200    5.4540   -0.0790 ho        1 MOL      0.416383
    186 H91        -9.1410    6.7940   -0.6860 ho        1 MOL      0.416383
    187 O26        -6.4590    7.0900   -2.4390 oh        1 MOL     -0.836048
    188 H92        -6.5550    7.0080   -3.3910 ho        1 MOL      0.416383
    189 H93        -6.8800    7.9200   -2.2280 ho        1 MOL      0.416383
    190 O27        -6.3330    7.0520    0.5980 oh        1 MOL     -0.836048
    191 H94        -5.4730    7.4880    0.6330 ho        1 MOL      0.416383
    192 H95        -6.9350    7.6820    0.9800 ho        1 MOL      0.416383
    193 O28        -3.7710    4.6450   -0.5550 oh        1 MOL     -0.836048
    194 H96        -3.0240    5.2410   -0.4670 ho        1 MOL      0.416383
    195 H97        -3.3860    3.7790   -0.4900 ho        1 MOL      0.416383
    196 O29        -4.9970    4.0590   -3.1360 oh        1 MOL     -0.836048
    197 H98        -4.1150    4.2920   -3.4410 ho        1 MOL      0.416383
    198 H99        -5.3530    3.4970   -3.8250 ho        1 MOL      0.416383
@<TRIPOS>BOND
     1    1    2 1   
     2    1    4 1   
     3    1    5 1   
     4    1    6 1   
     5    2    3 2   
     6    2    7 1   
     7    7    8 1   
     8    7   15 1   
     9    8    9 1   
    10    8   11 1   
    11    8   16 1   
    12    9   10 2   
    13    9   19 1   
    14   11   12 1   
    15   11   17 1   
    16   11   18 1   
    17   12   13 1   
    18   12   14 1   
    19   19   20 1   
    20   19   28 1   
    21   20   21 1   
    22   20   23 1   
    23   20   29 1   
    24   21   22 2   
    25   21   41 1   
    26   23   24 1   
    27   23   30 1   
    28   23   31 1   
    29   24   25 1   
    30   24   32 1   
    31   24   33 1   
    32   25   26 1   
    33   25   34 1   
    34   25   35 1   
    35   26   27 1   
    36   26   36 1   
    37   26   37 1   
    38   27   38 1   
    39   27   39 1   
    40   27   40 1   
    41   41   42 1   
    42   41   49 1   
    43   42   43 1   
    44   42   45 1   
    45   42   50 1   
    46   43   44 2   
    47   43   53 1   
    48   45   46 1   
    49   45   51 1   
    50   45   52 1   
    51   46   47 1   
    52   46   48 1   
    53   53   54 1   
    54   53   57 1   
    55   54   55 1   
    56   54   58 1   
    57   54   59 1   
    58   55   56 2   
    59   55   60 1   
    60   60   61 1   
    61   60   68 1   
    62   61   62 1   
    63   61   64 1   
    64   61   69 1   
    65   62   63 2   
    66   62   72 1   
    67   64   65 1   
    68   64   70 1   
    69   64   71 1   
    70   65   66 1   
    71   65   67 1   
    72   72   73 1   
    73   72   76 1   
    74   73   74 1   
    75   73   77 1   
    76   73   78 1   
    77   74   75 2   
    78   74   79 1   
    79   79   80 1   
    80   79   86 1   
    81   80   81 1   
    82   80   83 1   
    83   80   87 1   
    84   81   82 2   
    85   81   93 1   
    86   83   84 1   
    87   83   85 1   
    88   83   88 1   
    89   84   90 1   
    90   84   91 1   
    91   84   92 1   
    92   85   89 1   
    93   93   94 1   
    94   93  101 1   
    95   94   95 1   
    96   94   97 1   
    97   94  102 1   
    98   95   96 2   
    99   95  112 1   
   100   97   98 1   
   101   97   99 1   
   102   97  103 1   
   103   98  100 1   
   104   98  104 1   
   105   98  105 1   
   106   99  106 1   
   107   99  107 1   
   108   99  108 1   
   109  100  109 1   
   110  100  110 1   
   111  100  111 1   
   112  112  113 1   
   113  112  119 1   
   114  113  114 1   
   115  113  116 1   
   116  113  120 1   
   117  114  115 2   
   118  114  126 1   
   119  116  117 1   
   120  116  118 1   
   121  116  121 1   
   122  117  123 1   
   123  117  124 1   
   124  117  125 1   
   125  118  122 1   
   126  126  127 1   
   127  126  133 1   
   128  127  128 1   
   129  127  130 1   
   130  127  134 1   
   131  128  129 2   
   132  128  140 1   
   133  130  131 1   
   134  130  132 1   
   135  130  135 1   
   136  131  137 1   
   137  131  138 1   
   138  131  139 1   
   139  132  136 1   
   140  140  141 1   
   141  140  149 1   
   142  141  142 1   
   143  141  144 1   
   144  141  150 1   
   145  142  143 2   
   146  142  162 1   
   147  144  145 1   
   148  144  151 1   
   149  144  152 1   
   150  145  146 1   
   151  145  153 1   
   152  145  154 1   
   153  146  147 1   
   154  146  155 1   
   155  146  156 1   
   156  147  148 1   
   157  147  157 1   
   158  147  158 1   
   159  148  159 1   
   160  148  160 1   
   161  148  161 1   
   162  162  163 1   
   163  162  171 1   
   164  163  164 1   
   165  163  166 1   
   166  163  172 1   
   167  164  165 2   
   168  164  177 1   
   169  166  167 1   
   170  166  173 1   
   171  166  174 1   
   172  167  168 1   
   173  167  175 1   
   174  167  176 1   
   175  168  169 1   
   176  168  170 1   
   177  177  178 1   
   178  177  182 1   
   179  178  179 1   
   180  178  180 1   
   181  178  181 1   
   182  184  185 1   
   183  184  186 1   
   184  187  188 1   
   185  187  189 1   
   186  190  191 1   
   187  190  192 1   
   188  193  194 1   
   189  193  195 1   
   190  196  197 1   
   191  196  198 1   
@<TRIPOS>SUBSTRUCTURE
     1 MOL         1 TEMP              0 ****  ****    0 ROOT
