@<TRIPOS>MOLECULE
MOL
  198   191     1     0     0
SMALL
resp


@<TRIPOS>ATOM
      1 C1          3.3520    3.0790    2.8540 c3        1 MOL     -0.508427
      2 C2          2.5830    3.6580    1.6380 c         1 MOL      0.915871
      3 O1          1.7530    2.9600    1.0840 o         1 MOL     -0.576259
      4 H1          3.8910    2.1820    2.5490 hc        1 MOL      0.113776
      5 H2          4.0620    3.8210    3.2220 hc        1 MOL      0.113776
      6 H3          2.6450    2.8280    3.6450 hc        1 MOL      0.113776
      7 N1          2.9600    4.8650    1.2310 n         1 MOL     -0.681098
      8 C3          2.3640    5.4880    0.0630 c3        1 MOL      0.010158
      9 C4          0.8070    5.7270    0.2590 c         1 MOL      0.779901
     10 O2          0.0150    5.5360   -0.6860 o         1 MOL     -0.538949
     11 C5          2.8460    4.9200   -1.2940 c3        1 MOL     -0.575396
     12 C6          4.3730    4.5630   -1.3020 c         1 MOL      0.992617
     13 O3          5.1830    5.2370   -0.6150 o         1 MOL     -0.775915
     14 O4          4.8620    3.6100   -1.8810 o         1 MOL     -0.775915
     15 H4          3.6090    5.4240    1.7680 hn        1 MOL      0.303351
     16 H5          2.7520    6.5040    0.1620 h1        1 MOL      0.080951
     17 H6          2.6540    5.6550   -2.0740 hc        1 MOL      0.169717
     18 H7          2.1180    4.1310   -1.4880 hc        1 MOL      0.169717
     19 N2          0.3480    6.2280    1.4060 n         1 MOL     -0.785788
     20 C7         -1.0690    6.4340    1.7830 c3        1 MOL      0.025920
     21 C8         -1.7700    7.5060    0.9450 c         1 MOL      0.654627
     22 O5         -1.2380    8.5710    0.5810 o         1 MOL     -0.610210
     23 C9         -1.3780    6.5170    3.2580 c3        1 MOL      0.084176
     24 C10        -0.9530    7.8070    4.0020 c3        1 MOL     -0.023933
     25 C11        -0.6790    5.3730    3.9970 c3        1 MOL     -0.222118
     26 C12        -1.6230    7.9500    5.3540 c3        1 MOL     -0.057882
     27 H8          1.0440    6.5110    2.0850 hn        1 MOL      0.391390
     28 H9         -1.6260    5.5870    1.3770 h1        1 MOL      0.105607
     29 H10        -2.4470    6.3740    3.3950 hc        1 MOL      0.081127
     30 H11        -1.3030    8.5920    3.3260 hc        1 MOL      0.001128
     31 H12         0.1350    7.8820    4.0270 hc        1 MOL      0.001128
     32 H13        -1.1210    5.2760    4.9910 hc        1 MOL      0.048417
     33 H14        -0.8570    4.4190    3.5040 hc        1 MOL      0.048417
     34 H15         0.3940    5.5170    4.0890 hc        1 MOL      0.048417
     35 H16        -2.6960    7.7850    5.2490 hc        1 MOL      0.010941
     36 H17        -1.2240    7.2550    6.0980 hc        1 MOL      0.010941
     37 H18        -1.5000    8.9330    5.8110 hc        1 MOL      0.010941
     38 N3         -2.9920    7.3420    0.4480 n         1 MOL     -0.525717
     39 C13        -4.0270    6.2980    0.8610 c3        1 MOL      0.049600
     40 C14        -4.0200    4.9930    0.1330 c         1 MOL      0.479227
     41 O6         -4.7710    4.0880    0.4570 o         1 MOL     -0.543612
     42 C15        -5.4530    6.9500    0.8720 c3        1 MOL     -0.236792
     43 C16        -5.7870    7.6670   -0.4340 c         1 MOL      0.797869
     44 O7         -6.2540    8.7770   -0.3240 o         1 MOL     -0.724913
     45 O8         -5.6840    7.0540   -1.5390 o         1 MOL     -0.724913
     46 H19        -3.2650    8.1220   -0.1320 hn        1 MOL      0.310989
     47 H20        -3.8030    5.9770    1.8790 h1        1 MOL      0.014653
     48 H21        -5.4560    7.5120    1.8080 hc        1 MOL      0.049720
     49 H22        -6.1560    6.1370    1.0720 hc        1 MOL      0.049720
     50 N4         -3.1500    4.8190   -0.8710 n         1 MOL     -0.280365
     51 C17        -2.8230    3.4770   -1.5170 c3        1 MOL     -0.244691
     52 C18        -3.9590    2.9010   -2.4060 c         1 MOL      0.561808
     53 O9         -4.9980    3.5180   -2.7420 o         1 MOL     -0.477992
     54 H23        -2.5560    5.5910   -1.1310 hn        1 MOL      0.282336
     55 H24        -2.6070    2.6950   -0.7850 h1        1 MOL      0.120069
     56 H25        -1.9900    3.6630   -2.1990 h1        1 MOL      0.120069
     57 N5         -3.8520    1.6260   -2.7740 n         1 MOL     -0.477175
     58 C19        -4.8840    0.8160   -3.5330 c3        1 MOL      0.074943
     59 C20        -6.1610    0.5310   -2.6940 c         1 MOL      0.434651
     60 O10        -7.2670    0.2980   -3.2510 o         1 MOL     -0.573964
     61 C21        -4.3130   -0.4670   -4.1600 c3        1 MOL     -0.215704
     62 C22        -3.6300   -1.4610   -3.2110 c         1 MOL      0.719860
     63 O11        -4.2310   -1.7230   -2.1580 o         1 MOL     -0.695659
     64 O12        -2.4830   -1.9250   -3.4820 o         1 MOL     -0.695659
     65 H26        -3.0370    1.1680   -2.3800 hn        1 MOL      0.269231
     66 H27        -5.2650    1.4940   -4.3030 h1        1 MOL      0.079188
     67 H28        -3.6910   -0.1700   -5.0070 hc        1 MOL      0.039540
     68 H29        -5.1560   -1.0040   -4.5800 hc        1 MOL      0.039540
     69 N6         -6.0930    0.6380   -1.3500 n         1 MOL     -0.137296
     70 C23        -7.2500    0.3660   -0.4820 c3        1 MOL     -0.312001
     71 C24        -7.6090   -1.0820   -0.1700 c         1 MOL      0.509188
     72 O13        -8.5200   -1.4270    0.5240 o         1 MOL     -0.559484
     73 H30        -5.1620    0.7850   -0.9930 hn        1 MOL      0.227270
     74 H31        -8.0770    0.9140   -0.9300 h1        1 MOL      0.144962
     75 H32        -6.9340    0.8390    0.4510 h1        1 MOL      0.144962
     76 N7         -6.8700   -1.9540   -0.8160 n         1 MOL     -0.068561
     77 C25        -6.9760   -3.3530   -0.8430 c3        1 MOL     -0.172740
     78 C26        -6.7510   -4.0090    0.4920 c         1 MOL      0.633425
     79 O14        -7.4840   -4.9210    0.9380 o         1 MOL     -0.558120
     80 C27        -8.2520   -3.7420   -1.6500 c3        1 MOL      0.190504
     81 C28        -8.3300   -3.1280   -3.0720 c3        1 MOL     -0.388692
     82 C29        -9.2190   -3.8790   -4.0790 c         1 MOL      0.668962
     83 N8         -9.7360   -3.2500   -5.1160 n         1 MOL     -0.766113
     84 O15        -9.4990   -5.0670   -3.9260 o         1 MOL     -0.564004
     85 H33        -6.1640   -1.5490   -1.4060 hn        1 MOL      0.133183
     86 H34        -6.1250   -3.7230   -1.4140 h1        1 MOL      0.123910
     87 H35        -9.2240   -3.6720   -1.1710 hc        1 MOL      0.001353
     88 H36        -8.2150   -4.8260   -1.7410 hc        1 MOL      0.001353
     89 H37        -7.3290   -2.9890   -3.4700 hc        1 MOL      0.131092
     90 H38        -8.7470   -2.1300   -2.9260 hc        1 MOL      0.131092
     91 H39        -9.4020   -2.3260   -5.3360 hn        1 MOL      0.337660
     92 H40       -10.1430   -3.7400   -5.8940 hn        1 MOL      0.337660
     93 N9         -5.7890   -3.5400    1.3160 n         1 MOL     -0.537084
     94 C30        -5.6710   -3.8300    2.8030 c3        1 MOL     -0.022837
     95 C31        -4.2660   -3.9760    3.3960 c         1 MOL      0.428636
     96 O16        -4.0720   -4.6800    4.4630 o         1 MOL     -0.563279
     97 C32        -6.3530   -2.7830    3.6200 c3        1 MOL      0.121018
     98 C33        -6.0760   -1.2900    3.2930 c3        1 MOL     -0.289615
     99 C34        -7.9240   -2.8230    3.6230 c3        1 MOL     -0.289615
    100 H41        -5.2540   -2.7400    1.0060 hn        1 MOL      0.225197
    101 H42        -6.2200   -4.7660    2.8890 h1        1 MOL      0.155412
    102 H43        -6.0530   -2.8740    4.6680 hc        1 MOL      0.006859
    103 H44        -6.2720   -0.5940    4.1100 hc        1 MOL      0.076697
    104 H45        -5.0270   -1.1310    3.0580 hc        1 MOL      0.076697
    105 H46        -6.6920   -1.0270    2.4280 hc        1 MOL      0.076697
    106 H47        -8.3590   -2.8090    2.6220 hc        1 MOL      0.076697
    107 H48        -8.1770   -3.6680    4.2650 hc        1 MOL      0.076697
    108 H49        -8.2610   -1.8900    4.0750 hc        1 MOL      0.076697
    109 N10        -3.2260   -3.5030    2.6690 n         1 MOL     -0.316912
    110 C35        -1.8130   -3.3420    2.9590 c3        1 MOL      0.155206
    111 C36        -1.1070   -3.7120    1.6470 c         1 MOL      0.513683
    112 O17        -1.6900   -4.1260    0.6970 o         1 MOL     -0.536889
    113 C37        -1.5340   -1.9080    3.4060 c3        1 MOL     -0.138269
    114 C38        -0.5540   -1.8120    4.6180 c         1 MOL      0.602573
    115 N11        -1.0500   -1.5430    5.8360 n         1 MOL     -0.806713
    116 O18         0.5830   -2.1760    4.5670 o         1 MOL     -0.497185
    117 H50        -3.5370   -3.1180    1.7920 hn        1 MOL      0.284614
    118 H51        -1.5060   -4.0540    3.7100 h1        1 MOL      0.087096
    119 H52        -2.4340   -1.4360    3.7930 hc        1 MOL      0.040919
    120 H53        -1.3350   -1.1860    2.6110 hc        1 MOL      0.040919
    121 H54        -2.0450   -1.5580    6.0010 hn        1 MOL      0.361856
    122 H55        -0.4240   -1.5990    6.6250 hn        1 MOL      0.361856
    123 N12         0.1730   -3.3940    1.5020 n         1 MOL     -0.493129
    124 C39         1.0260   -3.6730    0.3760 c3        1 MOL      0.412995
    125 C40         2.3480   -4.2130    0.8640 c         1 MOL      0.252674
    126 O19         2.9020   -3.7740    1.8820 o         1 MOL     -0.500587
    127 C41         1.2410   -2.3160   -0.3240 c3        1 MOL     -0.237649
    128 C42         1.8870   -2.4530   -1.6990 ca        1 MOL     -0.049256
    129 C43         3.2530   -2.3730   -1.8930 ca        1 MOL     -0.076055
    130 C44         1.0150   -2.7110   -2.7710 ca        1 MOL     -0.076055
    131 C45         3.7740   -2.4850   -3.1720 ca        1 MOL     -0.345485
    132 C46         1.5500   -2.8910   -4.0950 ca        1 MOL     -0.345485
    133 C47         2.9420   -2.7350   -4.3240 ca        1 MOL      0.398028
    134 O20         3.4470   -2.6350   -5.5440 oh        1 MOL     -0.518565
    135 H56         0.6060   -2.8470    2.2310 hn        1 MOL      0.162385
    136 H57         0.5340   -4.3650   -0.2970 h1        1 MOL      0.022267
    137 H58         1.9130   -1.6700    0.2450 hc        1 MOL      0.109891
    138 H59         0.2740   -1.8470   -0.4790 hc        1 MOL      0.109891
    139 H60         3.8820   -2.0830   -1.0670 ha        1 MOL      0.154296
    140 H61        -0.0500   -2.7620   -2.5890 ha        1 MOL      0.154296
    141 H62         4.8500   -2.4020   -3.3000 ha        1 MOL      0.178760
    142 H63         0.9160   -2.9890   -4.9610 ha        1 MOL      0.178760
    143 H64         4.3650   -2.3700   -5.5310 ho        1 MOL      0.376486
    144 N13         2.9500   -5.0010    0.0320 n         1 MOL     -0.239484
    145 C48         4.1700   -5.7150    0.2810 c3        1 MOL      0.126281
    146 C49         5.0990   -5.4180   -0.8600 c         1 MOL      0.347550
    147 O21         5.2070   -6.0610   -1.9190 o         1 MOL     -0.555193
    148 C50         3.8290   -7.2220    0.2580 c3        1 MOL      0.130093
    149 C51         2.8780   -7.6960    1.3130 c3        1 MOL     -0.249335
    150 C52         2.6650   -9.2280    1.3640 c         1 MOL      0.729511
    151 O22         2.7690   -9.8280    2.4740 o         1 MOL     -0.675900
    152 O23         2.3990   -9.8540    0.3290 o         1 MOL     -0.675900
    153 H65         2.3760   -5.2710   -0.7520 hn        1 MOL      0.259236
    154 H66         4.6680   -5.4200    1.1990 h1        1 MOL      0.139120
    155 H67         4.7070   -7.8720    0.2820 hc        1 MOL     -0.008236
    156 H68         3.3810   -7.3740   -0.7210 hc        1 MOL     -0.008236
    157 H69         1.9220   -7.2460    1.0370 hc        1 MOL      0.019766
    158 H70         3.2630   -7.3830    2.2870 hc        1 MOL      0.019766
    159 N14         5.9960   -4.4430   -0.7520 n         1 MOL     -0.134086
    160 C53         6.0540   -3.3690    0.2450 c3        1 MOL     -0.726012
    161 C54         6.6080   -3.8060    1.6360 c         1 MOL      0.592750
    162 O24         7.2140   -4.9190    1.6540 o         1 MOL     -0.504182
    163 C55         6.9030   -2.1890   -0.2600 c3        1 MOL      0.230410
    164 C56         8.4850   -2.4940   -0.3260 c3        1 MOL     -0.206874
    165 C57         9.1610   -1.6460   -1.4390 c         1 MOL      0.723675
    166 O25         9.6310   -0.5320   -1.2090 o         1 MOL     -0.725602
    167 O26         9.2130   -2.1170   -2.5880 o         1 MOL     -0.725602
    168 H71         6.6200   -4.4100   -1.5450 hn        1 MOL      0.286895
    169 H72         5.0100   -3.1190    0.4230 h1        1 MOL      0.171961
    170 H73         6.9040   -1.3210    0.4040 hc        1 MOL     -0.004689
    171 H74         6.5080   -1.9230   -1.2370 hc        1 MOL     -0.004689
    172 H75         8.6650   -3.5200   -0.6430 hc        1 MOL      0.036370
    173 H76         8.9330   -2.2500    0.6400 hc        1 MOL      0.036370
    174 N15         6.1110   -3.0890    2.7070 n         1 MOL     -0.296611
    175 C58         6.1190   -3.4420    4.1420 c3        1 MOL     -0.213610
    176 H77         6.6450   -4.3870    4.2800 h1        1 MOL      0.097417
    177 H78         6.6250   -2.6600    4.7070 h1        1 MOL      0.097417
    178 H79         5.0930   -3.5420    4.4970 h1        1 MOL      0.097417
    179 H80         5.7660   -2.1480    2.5460 hn        1 MOL      0.272797
    180 Ca1         7.4160    3.9810   -0.9170 Ca        1 MOL      1.797164
    181 O27         8.8780    2.2370    0.5820 oh        1 MOL     -0.905848
    182 H81         9.7710    2.0180    0.3290 ho        1 MOL      0.420079
    183 H82         8.6420    1.5780    1.2290 ho        1 MOL      0.420079
    184 O28         9.9520    4.1110   -1.6400 oh        1 MOL     -0.905848
    185 H83        10.4920    4.6780   -2.1970 ho        1 MOL      0.420079
    186 H84        10.5100    3.3570   -1.4530 ho        1 MOL      0.420079
    187 O29         5.9650    2.4170    0.7300 oh        1 MOL     -0.905848
    188 H85         5.2290    1.9120    0.3800 ho        1 MOL      0.420079
    189 H86         5.9610    2.2340    1.6690 ho        1 MOL      0.420079
    190 O30         7.3180    4.6820   -3.5660 oh        1 MOL     -0.905848
    191 H87         7.8940    4.5920   -4.3290 ho        1 MOL      0.420079
    192 H88         6.4430    4.4850   -3.9000 ho        1 MOL      0.420079
    193 O31         7.7690    1.4290   -2.0170 oh        1 MOL     -0.905848
    194 H89         7.6360    0.9630   -2.8440 ho        1 MOL      0.420079
    195 H90         8.4460    0.9230   -1.5630 ho        1 MOL      0.420079
    196 O32         7.9530    6.6170   -1.4070 oh        1 MOL     -0.905848
    197 H91         8.7900    7.0500   -1.5660 ho        1 MOL      0.420079
    198 H92         7.3330    7.0740   -1.9720 ho        1 MOL      0.420079
@<TRIPOS>BOND
     1    1    2 1   
     2    1    4 1   
     3    1    5 1   
     4    1    6 1   
     5    2    3 2   
     6    2    7 1   
     7    7    8 1   
     8    7   15 1   
     9    8    9 1   
    10    8   11 1   
    11    8   16 1   
    12    9   10 2   
    13    9   19 1   
    14   11   12 1   
    15   11   17 1   
    16   11   18 1   
    17   12   13 1   
    18   12   14 1   
    19   19   20 1   
    20   19   27 1   
    21   20   21 1   
    22   20   23 1   
    23   20   28 1   
    24   21   22 2   
    25   21   38 1   
    26   23   24 1   
    27   23   25 1   
    28   23   29 1   
    29   24   26 1   
    30   24   30 1   
    31   24   31 1   
    32   25   32 1   
    33   25   33 1   
    34   25   34 1   
    35   26   35 1   
    36   26   36 1   
    37   26   37 1   
    38   38   39 1   
    39   38   46 1   
    40   39   40 1   
    41   39   42 1   
    42   39   47 1   
    43   40   41 2   
    44   40   50 1   
    45   42   43 1   
    46   42   48 1   
    47   42   49 1   
    48   43   44 1   
    49   43   45 1   
    50   50   51 1   
    51   50   54 1   
    52   51   52 1   
    53   51   55 1   
    54   51   56 1   
    55   52   53 2   
    56   52   57 1   
    57   57   58 1   
    58   57   65 1   
    59   58   59 1   
    60   58   61 1   
    61   58   66 1   
    62   59   60 2   
    63   59   69 1   
    64   61   62 1   
    65   61   67 1   
    66   61   68 1   
    67   62   63 1   
    68   62   64 1   
    69   69   70 1   
    70   69   73 1   
    71   70   71 1   
    72   70   74 1   
    73   70   75 1   
    74   71   72 2   
    75   71   76 1   
    76   76   77 1   
    77   76   85 1   
    78   77   78 1   
    79   77   80 1   
    80   77   86 1   
    81   78   79 2   
    82   78   93 1   
    83   80   81 1   
    84   80   87 1   
    85   80   88 1   
    86   81   82 1   
    87   81   89 1   
    88   81   90 1   
    89   82   83 1   
    90   82   84 2   
    91   83   91 1   
    92   83   92 1   
    93   93   94 1   
    94   93  100 1   
    95   94   95 1   
    96   94   97 1   
    97   94  101 1   
    98   95   96 2   
    99   95  109 1   
   100   97   98 1   
   101   97   99 1   
   102   97  102 1   
   103   98  103 1   
   104   98  104 1   
   105   98  105 1   
   106   99  106 1   
   107   99  107 1   
   108   99  108 1   
   109  109  110 1   
   110  109  117 1   
   111  110  111 1   
   112  110  113 1   
   113  110  118 1   
   114  111  112 2   
   115  111  123 1   
   116  113  114 1   
   117  113  119 1   
   118  113  120 1   
   119  114  115 1   
   120  114  116 2   
   121  115  121 1   
   122  115  122 1   
   123  123  124 1   
   124  123  135 1   
   125  124  125 1   
   126  124  127 1   
   127  124  136 1   
   128  125  126 2   
   129  125  144 1   
   130  127  128 1   
   131  127  137 1   
   132  127  138 1   
   133  128  129 ar  
   134  128  130 ar  
   135  129  131 ar  
   136  129  139 1   
   137  130  132 ar  
   138  130  140 1   
   139  131  133 ar  
   140  131  141 1   
   141  132  133 ar  
   142  132  142 1   
   143  133  134 1   
   144  134  143 1   
   145  144  145 1   
   146  144  153 1   
   147  145  146 1   
   148  145  148 1   
   149  145  154 1   
   150  146  147 2   
   151  146  159 1   
   152  148  149 1   
   153  148  155 1   
   154  148  156 1   
   155  149  150 1   
   156  149  157 1   
   157  149  158 1   
   158  150  151 1   
   159  150  152 1   
   160  159  160 1   
   161  159  168 1   
   162  160  161 1   
   163  160  163 1   
   164  160  169 1   
   165  161  162 2   
   166  161  174 1   
   167  163  164 1   
   168  163  170 1   
   169  163  171 1   
   170  164  165 1   
   171  164  172 1   
   172  164  173 1   
   173  165  166 1   
   174  165  167 1   
   175  174  175 1   
   176  174  179 1   
   177  175  176 1   
   178  175  177 1   
   179  175  178 1   
   180  181  182 1   
   181  181  183 1   
   182  184  185 1   
   183  184  186 1   
   184  187  188 1   
   185  187  189 1   
   186  190  191 1   
   187  190  192 1   
   188  193  194 1   
   189  193  195 1   
   190  196  197 1   
   191  196  198 1   
@<TRIPOS>SUBSTRUCTURE
     1 MOL         1 TEMP              0 ****  ****    0 ROOT
