@<TRIPOS>MOLECULE
MOL
  181   177     1     0     0
SMALL
resp


@<TRIPOS>ATOM
      1 C1         -7.8810   -7.3390   -2.2030 c3        1 MOL     -0.331873
      2 C2         -6.9170   -6.4820   -1.4310 c         1 MOL      0.772240
      3 O1         -6.1590   -7.0830   -0.7570 o         1 MOL     -0.598999
      4 H1         -7.9940   -8.3000   -1.7010 hc        1 MOL      0.074155
      5 H2         -8.8490   -6.8410   -2.2560 hc        1 MOL      0.074155
      6 H3         -7.4990   -7.5000   -3.2110 hc        1 MOL      0.074155
      7 N1         -6.9540   -5.1410   -1.3540 n         1 MOL     -0.719574
      8 C3         -7.9350   -4.2130   -1.9770 c3        1 MOL      0.347257
      9 C4         -8.7130   -3.4560   -0.9060 c         1 MOL      0.520373
     10 O2         -9.5910   -2.7470   -1.2850 o         1 MOL     -0.559721
     11 C5         -7.3700   -3.2750   -3.1020 c3        1 MOL     -0.377313
     12 C6         -6.3030   -2.2790   -2.6920 c         1 MOL      0.946729
     13 O3         -5.7970   -2.2990   -1.5660 o         1 MOL     -0.818672
     14 O4         -5.9650   -1.3390   -3.4240 o         1 MOL     -0.818672
     15 H4         -6.2680   -4.6790   -0.7650 hn        1 MOL      0.374027
     16 H5         -8.7610   -4.7930   -2.4070 h1        1 MOL      0.023918
     17 H6         -8.2570   -2.8060   -3.5180 hc        1 MOL      0.072065
     18 H7         -6.9220   -3.8290   -3.9290 hc        1 MOL      0.072065
     19 N2         -8.6210   -3.7350    0.4350 n         1 MOL     -0.570155
     20 C7         -9.5520   -3.1880    1.3900 c3        1 MOL      0.381000
     21 C8         -9.1870   -1.7850    1.8790 c         1 MOL      0.304570
     22 O5         -9.7340   -1.2410    2.8760 o         1 MOL     -0.540478
     23 C9         -9.7110   -4.1720    2.5810 c3        1 MOL     -0.406037
     24 H8         -7.8930   -4.3500    0.7790 hn        1 MOL      0.282402
     25 H9        -10.5330   -3.0780    0.9260 h1        1 MOL      0.017881
     26 H10        -9.9240   -5.1770    2.2070 hc        1 MOL      0.108266
     27 H11        -8.8910   -4.0760    3.3030 hc        1 MOL      0.108266
     28 H12       -10.5690   -3.8250    3.1490 hc        1 MOL      0.108266
     29 N3         -8.3270   -1.0920    1.1650 n         1 MOL     -0.215161
     30 C10        -8.0000    0.3630    1.4110 c3        1 MOL      0.048821
     31 C11        -7.6580    1.0080    0.0420 c         1 MOL      0.531416
     32 O6         -7.0930    0.3860   -0.8540 o         1 MOL     -0.537058
     33 C12        -6.8930    0.6510    2.3610 c3        1 MOL      0.120650
     34 C13        -5.6830   -0.3220    2.2740 c         1 MOL      0.701470
     35 O7         -5.4420   -0.8740    1.1680 o         1 MOL     -0.694185
     36 O8         -4.8790   -0.5690    3.2560 o         1 MOL     -0.694185
     37 H13        -7.9150   -1.5070    0.3430 hn        1 MOL      0.233692
     38 H14        -8.9220    0.8390    1.7500 h1        1 MOL      0.012703
     39 H15        -7.2360    0.6400    3.3930 hc        1 MOL     -0.050603
     40 H16        -6.5010    1.6330    2.1100 hc        1 MOL     -0.050603
     41 N4         -8.0990    2.2540   -0.1930 n         1 MOL     -0.412936
     42 C14        -7.9940    2.8850   -1.5090 c3        1 MOL     -0.192582
     43 C15        -6.5200    3.1990   -1.8640 c         1 MOL      0.506941
     44 O9         -5.7610    2.3390   -2.3500 o         1 MOL     -0.591315
     45 H17        -8.4480    2.7440    0.6050 hn        1 MOL      0.285008
     46 H18        -8.4800    3.8450   -1.6870 h1        1 MOL      0.133855
     47 H19        -8.4740    2.2090   -2.2160 h1        1 MOL      0.133855
     48 N5         -6.1410    4.4530   -1.7150 n         1 MOL     -0.365455
     49 C16        -4.8370    5.0140   -2.1680 c3        1 MOL      0.123658
     50 C17        -3.7180    4.7430   -1.1530 c         1 MOL      0.451743
     51 O10        -2.5420    4.6690   -1.4580 o         1 MOL     -0.458310
     52 C18        -5.0590    6.5690   -2.3310 c3        1 MOL     -0.314397
     53 C19        -3.7930    7.3440   -2.8080 c         1 MOL      0.706982
     54 N6         -3.3780    6.9860   -3.9720 n         1 MOL     -0.816899
     55 O11        -3.2360    8.1160   -2.0360 o         1 MOL     -0.525165
     56 H20        -6.8640    5.0910   -1.4150 hn        1 MOL      0.272099
     57 H21        -4.4390    4.5230   -3.0560 h1        1 MOL      0.095027
     58 H22        -5.3060    6.9150   -1.3180 hc        1 MOL      0.062733
     59 H23        -5.8730    6.7190   -3.0370 hc        1 MOL      0.062733
     60 H24        -3.8120    6.2900   -4.5720 hn        1 MOL      0.379442
     61 H25        -2.6020    7.4580   -4.4250 hn        1 MOL      0.379442
     62 N7         -4.1160    4.5120    0.0830 n         1 MOL     -0.350742
     63 C20        -3.3480    3.9290    1.1860 c3        1 MOL     -0.210685
     64 C21        -3.2930    2.3660    1.1780 c         1 MOL      0.838298
     65 O12        -4.0870    1.7040    0.4730 o         1 MOL     -0.687318
     66 H26        -5.0910    4.7140    0.3000 hn        1 MOL      0.246244
     67 H27        -3.6470    4.2380    2.1870 h1        1 MOL      0.146497
     68 H28        -2.2960    4.1540    0.9970 h1        1 MOL      0.146497
     69 N8         -2.3760    1.7900    1.9560 n         1 MOL     -0.762781
     70 C22        -1.5810    2.3650    3.0520 c3        1 MOL      0.325673
     71 C23        -0.0570    2.0880    2.9780 c         1 MOL      0.479935
     72 O13         0.7940    2.9840    3.1850 o         1 MOL     -0.558410
     73 C24        -2.1180    1.8580    4.3840 c3        1 MOL      0.492624
     74 C25        -1.6040    2.8180    5.4550 c3        1 MOL     -0.553846
     75 O14        -3.5500    1.6450    4.4600 oh        1 MOL     -0.675324
     76 H29        -2.4930    0.7870    1.9080 hn        1 MOL      0.293456
     77 H30        -1.6130    3.4480    3.0120 h1        1 MOL     -0.054436
     78 H31        -1.7250    0.8510    4.4920 h1        1 MOL     -0.011829
     79 H32        -3.6830    0.8320    3.9680 ho        1 MOL      0.359094
     80 H33        -0.5110    2.7260    5.4940 hc        1 MOL      0.136104
     81 H34        -1.8480    3.7980    5.0400 hc        1 MOL      0.136104
     82 H35        -2.0020    2.6010    6.4390 hc        1 MOL      0.136104
     83 N9          0.3080    0.8740    2.5770 n         1 MOL     -0.367931
     84 C26         1.6490    0.2900    2.6050 c3        1 MOL      0.211994
     85 C27         2.0510   -0.2500    1.1550 c         1 MOL      0.321799
     86 O15         1.2290   -0.9780    0.5460 o         1 MOL     -0.534098
     87 C28         1.7740   -0.8860    3.5710 c3        1 MOL      0.170602
     88 C29         1.2090   -0.6260    4.9830 c3        1 MOL      0.014192
     89 C30         3.2640   -1.3040    3.7600 c3        1 MOL     -0.086150
     90 C31         1.8640    0.4510    5.8050 c3        1 MOL     -0.256737
     91 H36        -0.4190    0.2260    2.3330 hn        1 MOL      0.206394
     92 H37         2.4310    0.9890    2.9020 h1        1 MOL      0.027567
     93 H38         1.1960   -1.7010    3.1440 hc        1 MOL     -0.032337
     94 H39         1.1580   -1.5660    5.5430 hc        1 MOL     -0.015792
     95 H40         0.1610   -0.3830    4.7960 hc        1 MOL     -0.015792
     96 H41         3.8490   -0.5910    4.3330 hc        1 MOL      0.026990
     97 H42         3.2310   -2.2830    4.2320 hc        1 MOL      0.026990
     98 H43         3.8130   -1.5010    2.8340 hc        1 MOL      0.026990
     99 H44         1.1940    0.7520    6.6030 hc        1 MOL      0.055526
    100 H45         2.7820    0.0070    6.1890 hc        1 MOL      0.055526
    101 H46         1.8840    1.3640    5.2100 hc        1 MOL      0.055526
    102 N10         3.2260   -0.0120    0.5370 n         1 MOL     -0.225301
    103 C32         4.3170    0.8940    0.9360 c3        1 MOL     -0.235375
    104 C33         5.6470    0.6040    0.2220 c         1 MOL      0.611646
    105 O16         5.6630   -0.1850   -0.7350 o         1 MOL     -0.499546
    106 C34         3.8620    2.3540    0.6320 c3        1 MOL      0.017000
    107 C35         3.5770    2.6260   -0.8140 c         1 MOL      0.734346
    108 O17         4.4630    3.2590   -1.4000 o         1 MOL     -0.742934
    109 O18         2.4090    2.4130   -1.2830 o         1 MOL     -0.742934
    110 H47         3.4210   -0.5230   -0.3110 hn        1 MOL      0.264372
    111 H48         4.4630    0.7880    2.0090 h1        1 MOL      0.098995
    112 H49         4.6320    3.0480    0.9690 hc        1 MOL     -0.019020
    113 H50         2.9660    2.5840    1.2110 hc        1 MOL     -0.019020
    114 N11         6.7120    1.2880    0.6320 n         1 MOL     -0.592657
    115 C36         8.0500    0.9950    0.0610 c3        1 MOL      0.447417
    116 C37         8.9670    0.1440    0.9410 c         1 MOL      0.286747
    117 O19         8.9940    0.3070    2.1800 o         1 MOL     -0.528235
    118 C38         8.7250    2.3690   -0.1990 c3        1 MOL     -0.499177
    119 C39        10.1600    2.3520   -0.5450 ca        1 MOL      0.316941
    120 C40        11.2050    2.2750    0.3660 ca        1 MOL     -0.261359
    121 C41        10.4160    2.5880   -1.9200 ca        1 MOL     -0.261359
    122 C42        12.5020    2.5320   -0.0870 ca        1 MOL     -0.066927
    123 C43        11.7770    2.7560   -2.3340 ca        1 MOL     -0.066927
    124 C44        12.7970    2.8120   -1.3780 ca        1 MOL     -0.181744
    125 H51         6.7020    1.9190    1.4240 hn        1 MOL      0.337275
    126 H52         7.9670    0.4910   -0.9000 h1        1 MOL      0.016249
    127 H53         8.7170    3.0580    0.6440 hc        1 MOL      0.150015
    128 H54         8.1780    2.7440   -1.0580 hc        1 MOL      0.150015
    129 H55        10.9860    2.0580    1.4050 ha        1 MOL      0.151257
    130 H56         9.6620    2.6440   -2.6860 ha        1 MOL      0.151257
    131 H57        13.3410    2.3700    0.5660 ha        1 MOL      0.093016
    132 H58        12.0420    2.7840   -3.3810 ha        1 MOL      0.093016
    133 H59        13.8420    2.8430   -1.6510 ha        1 MOL      0.105563
    134 N12         9.8930   -0.7150    0.3800 n         1 MOL      0.059937
    135 C45        10.0370   -1.0880   -0.9730 c3        1 MOL     -0.088336
    136 C46         8.9190   -1.8630   -1.6850 c         1 MOL      0.540763
    137 O20         8.7860   -1.7760   -2.8830 o         1 MOL     -0.545337
    138 C47        11.3550   -1.8860   -1.0290 c3        1 MOL      0.077588
    139 C48        12.1560   -1.3530    0.0650 c3        1 MOL     -0.093248
    140 C49        11.0830   -1.1270    1.1180 c3        1 MOL     -0.051167
    141 H60        10.2090   -0.2130   -1.5930 h1        1 MOL      0.044984
    142 H61        11.3090   -2.9590   -0.8770 hc        1 MOL      0.014311
    143 H62        11.7830   -1.7100   -2.0160 hc        1 MOL      0.014311
    144 H63        12.9330   -2.0930    0.2600 hc        1 MOL      0.024986
    145 H64        12.5270   -0.3460   -0.1150 hc        1 MOL      0.024986
    146 H65        10.8420   -2.0260    1.7070 h1        1 MOL      0.045757
    147 H66        11.4320   -0.3160    1.7490 h1        1 MOL      0.045757
    148 N13         8.0260   -2.5690   -0.8860 n         1 MOL     -0.562954
    149 C50         6.9000   -3.3740   -1.3740 c3        1 MOL      0.306993
    150 C51         7.4220   -4.4220   -2.4370 c         1 MOL      0.376053
    151 O21         8.0490   -5.3600   -1.9900 o         1 MOL     -0.563260
    152 C52         6.1490   -4.0890   -0.1980 c3        1 MOL      0.188308
    153 C53         5.7690   -3.1580    0.9770 c3        1 MOL     -0.085813
    154 C54         5.2010   -3.9750    2.1070 c         1 MOL      0.764669
    155 O22         5.4900   -3.5640    3.3140 o         1 MOL     -0.742461
    156 O23         4.5310   -5.0260    1.9830 o         1 MOL     -0.742461
    157 H67         7.9970   -2.4190    0.1110 hn        1 MOL      0.280956
    158 H68         6.1590   -2.6900   -1.7960 h1        1 MOL      0.021414
    159 H69         6.6240   -4.9800    0.2150 hc        1 MOL     -0.065225
    160 H70         5.2660   -4.4000   -0.7480 hc        1 MOL     -0.065225
    161 H71         5.0580   -2.4120    0.6380 hc        1 MOL     -0.060397
    162 H72         6.6780   -2.7170    1.3930 hc        1 MOL     -0.060397
    163 N14         7.2000   -4.3150   -3.7340 n         1 MOL     -0.303473
    164 C55         6.5990   -3.1380   -4.4200 c3        1 MOL     -0.190143
    165 H73         6.6670   -2.2650   -3.7710 h1        1 MOL      0.089501
    166 H74         7.1390   -2.9430   -5.3470 h1        1 MOL      0.089501
    167 H75         5.5530   -3.3420   -4.6450 h1        1 MOL      0.089501
    168 H76         7.6120   -5.0440   -4.2880 hn        1 MOL      0.254622
    169 Ca1        -4.5570    0.0870   -1.6560 Ca        1 MOL      1.785421
    170 O24        -2.7180   -1.9810   -2.7630 oh        1 MOL     -0.808528
    171 H77        -2.2210   -2.5550   -2.1810 ho        1 MOL      0.403107
    172 H78        -2.1970   -1.9430   -3.5670 ho        1 MOL      0.403107
    173 O25        -3.8630    0.8360   -4.0730 oh        1 MOL     -0.808528
    174 H79        -3.7370    0.1110   -4.6910 ho        1 MOL      0.403107
    175 H80        -3.5450    1.6080   -4.5410 ho        1 MOL      0.403107
    176 O26        -2.0720    1.0280   -1.8330 oh        1 MOL     -0.808528
    177 H81        -1.5220    1.5140   -1.2220 ho        1 MOL      0.403107
    178 H82        -1.4800    0.4120   -2.2590 ho        1 MOL      0.403107
    179 O27        -2.8920   -1.0620    0.1300 oh        1 MOL     -0.808528
    180 H83        -3.6100   -1.0120    0.7650 ho        1 MOL      0.403107
    181 H84        -2.1630   -1.4500    0.6200 ho        1 MOL      0.403107
@<TRIPOS>BOND
     1    1    2 1   
     2    1    4 1   
     3    1    5 1   
     4    1    6 1   
     5    2    3 2   
     6    2    7 1   
     7    7    8 1   
     8    7   15 1   
     9    8    9 1   
    10    8   11 1   
    11    8   16 1   
    12    9   10 2   
    13    9   19 1   
    14   11   12 1   
    15   11   17 1   
    16   11   18 1   
    17   12   13 1   
    18   12   14 1   
    19   19   20 1   
    20   19   24 1   
    21   20   21 1   
    22   20   23 1   
    23   20   25 1   
    24   21   22 2   
    25   21   29 1   
    26   23   26 1   
    27   23   27 1   
    28   23   28 1   
    29   29   30 1   
    30   29   37 1   
    31   30   31 1   
    32   30   33 1   
    33   30   38 1   
    34   31   32 2   
    35   31   41 1   
    36   33   34 1   
    37   33   39 1   
    38   33   40 1   
    39   34   35 1   
    40   34   36 1   
    41   41   42 1   
    42   41   45 1   
    43   42   43 1   
    44   42   46 1   
    45   42   47 1   
    46   43   44 2   
    47   43   48 1   
    48   48   49 1   
    49   48   56 1   
    50   49   50 1   
    51   49   52 1   
    52   49   57 1   
    53   50   51 2   
    54   50   62 1   
    55   52   53 1   
    56   52   58 1   
    57   52   59 1   
    58   53   54 1   
    59   53   55 2   
    60   54   60 1   
    61   54   61 1   
    62   62   63 1   
    63   62   66 1   
    64   63   64 1   
    65   63   67 1   
    66   63   68 1   
    67   64   65 2   
    68   64   69 1   
    69   69   70 1   
    70   69   76 1   
    71   70   71 1   
    72   70   73 1   
    73   70   77 1   
    74   71   72 2   
    75   71   83 1   
    76   73   74 1   
    77   73   75 1   
    78   73   78 1   
    79   74   80 1   
    80   74   81 1   
    81   74   82 1   
    82   75   79 1   
    83   83   84 1   
    84   83   91 1   
    85   84   85 1   
    86   84   87 1   
    87   84   92 1   
    88   85   86 2   
    89   85  102 1   
    90   87   88 1   
    91   87   89 1   
    92   87   93 1   
    93   88   90 1   
    94   88   94 1   
    95   88   95 1   
    96   89   96 1   
    97   89   97 1   
    98   89   98 1   
    99   90   99 1   
   100   90  100 1   
   101   90  101 1   
   102  102  103 1   
   103  102  110 1   
   104  103  104 1   
   105  103  106 1   
   106  103  111 1   
   107  104  105 2   
   108  104  114 1   
   109  106  107 1   
   110  106  112 1   
   111  106  113 1   
   112  107  108 1   
   113  107  109 1   
   114  114  115 1   
   115  114  125 1   
   116  115  116 1   
   117  115  118 1   
   118  115  126 1   
   119  116  117 2   
   120  116  134 1   
   121  118  119 1   
   122  118  127 1   
   123  118  128 1   
   124  119  120 ar  
   125  119  121 ar  
   126  120  122 ar  
   127  120  129 1   
   128  121  123 ar  
   129  121  130 1   
   130  122  124 ar  
   131  122  131 1   
   132  123  124 ar  
   133  123  132 1   
   134  124  133 1   
   135  134  135 1   
   136  134  140 1   
   137  135  136 1   
   138  135  138 1   
   139  135  141 1   
   140  136  137 2   
   141  136  148 1   
   142  138  139 1   
   143  138  142 1   
   144  138  143 1   
   145  139  140 1   
   146  139  144 1   
   147  139  145 1   
   148  140  146 1   
   149  140  147 1   
   150  148  149 1   
   151  148  157 1   
   152  149  150 1   
   153  149  152 1   
   154  149  158 1   
   155  150  151 2   
   156  150  163 1   
   157  152  153 1   
   158  152  159 1   
   159  152  160 1   
   160  153  154 1   
   161  153  161 1   
   162  153  162 1   
   163  154  155 1   
   164  154  156 1   
   165  163  164 1   
   166  163  168 1   
   167  164  165 1   
   168  164  166 1   
   169  164  167 1   
   170  170  171 1   
   171  170  172 1   
   172  173  174 1   
   173  173  175 1   
   174  176  177 1   
   175  176  178 1   
   176  179  180 1   
   177  179  181 1   
@<TRIPOS>SUBSTRUCTURE
     1 MOL         1 TEMP              0 ****  ****    0 ROOT
