@<TRIPOS>MOLECULE
MOL
  186   183     1     0     0
SMALL
resp


@<TRIPOS>ATOM
      1 C1          4.2980    3.6390   -4.5280 c3        1 MOL     -0.385808
      2 C2          4.8210    2.8990   -3.2830 c         1 MOL      0.696840
      3 O1          4.1080    2.6610   -2.3390 o         1 MOL     -0.466390
      4 H1          3.4560    4.2720   -4.2470 hc        1 MOL      0.092000
      5 H2          5.0930    4.2590   -4.9440 hc        1 MOL      0.092000
      6 H3          3.9740    2.9130   -5.2740 hc        1 MOL      0.092000
      7 N1          6.0860    2.4590   -3.2590 n         1 MOL     -0.644507
      8 C3          6.6960    1.5260   -2.2260 c3        1 MOL      0.089329
      9 C4          5.7910    0.3340   -2.0380 c         1 MOL      0.315128
     10 O2          5.4230    0.1550   -0.9050 o         1 MOL     -0.476147
     11 C5          7.4560    2.1070   -1.0180 c3        1 MOL      0.127155
     12 C6          6.7980    3.2820   -0.3080 c         1 MOL      0.675354
     13 O3          5.7700    3.0960    0.4250 o         1 MOL     -0.727118
     14 O4          7.5110    4.3210   -0.3480 o         1 MOL     -0.727118
     15 H4          6.6570    2.5970   -4.0790 hn        1 MOL      0.301096
     16 H5          7.5060    1.0580   -2.7930 h1        1 MOL      0.032513
     17 H6          8.4120    2.4610   -1.4220 hc        1 MOL     -0.042707
     18 H7          7.7090    1.3200   -0.3100 hc        1 MOL     -0.042707
     19 N2          5.3580   -0.3600   -3.1100 n         1 MOL     -0.349165
     20 C7          4.4700   -1.5340   -3.1290 c3        1 MOL      0.103368
     21 C8          5.1130   -2.7100   -2.3450 c         1 MOL      0.374639
     22 O5          5.5000   -3.7160   -2.9040 o         1 MOL     -0.584969
     23 C9          3.0370   -1.2520   -2.7080 c3        1 MOL      0.077026
     24 C10         2.2430   -2.4770   -2.7040 c3        1 MOL      0.353066
     25 C11         2.3180   -0.1030   -3.6070 c3        1 MOL     -0.345577
     26 C12         2.0500   -3.0980   -4.1250 c3        1 MOL     -0.443517
     27 H8          5.8290   -0.0920   -3.9550 hn        1 MOL      0.242668
     28 H9          4.4770   -1.9370   -4.1420 h1        1 MOL      0.015235
     29 H10         3.1530   -0.9640   -1.6640 hc        1 MOL      0.057517
     30 H11         1.2670   -2.2660   -2.2830 hc        1 MOL     -0.067480
     31 H12         2.6810   -3.2690   -2.0960 hc        1 MOL     -0.067480
     32 H13         1.2410   -0.2000   -3.5330 hc        1 MOL      0.071318
     33 H14         2.6930    0.8170   -3.1420 hc        1 MOL      0.071318
     34 H15         2.6830   -0.2520   -4.6150 hc        1 MOL      0.071318
     35 H16         1.3470   -2.5530   -4.7570 hc        1 MOL      0.085122
     36 H17         2.9970   -3.4550   -4.5460 hc        1 MOL      0.085122
     37 H18         1.5410   -4.0040   -3.8040 hc        1 MOL      0.085122
     38 N3          5.1600   -2.6280   -1.0250 n         1 MOL     -0.008199
     39 C13         6.0180   -3.5020   -0.2190 c3        1 MOL      0.031554
     40 C14         5.5760   -4.9480   -0.0120 c         1 MOL      0.710679
     41 O6          6.4690   -5.7690   -0.1140 o         1 MOL     -0.603511
     42 C15         6.5050   -2.8880    1.0690 c3        1 MOL     -0.450143
     43 C16         7.1220   -1.5210    1.0560 c         1 MOL      0.856774
     44 O7          8.2850   -1.4630    0.5290 o         1 MOL     -0.728350
     45 O8          6.6030   -0.6010    1.7220 o         1 MOL     -0.728350
     46 H19         4.9530   -1.7360   -0.5970 hn        1 MOL      0.126662
     47 H20         6.9860   -3.5640   -0.7120 h1        1 MOL      0.028596
     48 H21         7.1640   -3.5680    1.6200 hc        1 MOL      0.129534
     49 H22         5.6300   -2.7870    1.7250 hc        1 MOL      0.129534
     50 N4          4.3200   -5.2760    0.1800 n         1 MOL     -0.710683
     51 C17         3.2720   -4.5950    0.8190 c3        1 MOL      0.315995
     52 C18         3.6510   -4.2890    2.2710 c         1 MOL      0.297426
     53 O9          4.4590   -5.0500    2.8320 o         1 MOL     -0.526697
     54 H23         4.1030   -6.2610    0.1490 hn        1 MOL      0.316502
     55 H24         2.4120   -5.2610    0.9130 h1        1 MOL      0.021477
     56 H25         2.9800   -3.6760    0.3090 h1        1 MOL      0.021477
     57 N5          3.1480   -3.3260    3.0180 n         1 MOL     -0.263572
     58 C19         2.0760   -2.3740    2.6370 c3        1 MOL     -0.030066
     59 C20         2.3250   -1.5730    1.3090 c         1 MOL     -0.034093
     60 O10         3.5250   -1.3930    1.0520 o         1 MOL     -0.364110
     61 C21         1.8560   -1.3860    3.7620 c3        1 MOL     -0.408296
     62 C22         3.2180   -0.7830    4.2990 c         1 MOL      0.770243
     63 O11         3.7440    0.2130    3.7230 o         1 MOL     -0.675242
     64 O12         3.7600   -1.2320    5.3310 o         1 MOL     -0.675242
     65 H26         3.5320   -3.2890    3.9540 hn        1 MOL      0.271554
     66 H27         1.1420   -2.9340    2.5790 h1        1 MOL      0.113819
     67 H28         1.3360   -1.9300    4.5590 hc        1 MOL      0.113598
     68 H29         1.1800   -0.5890    3.4680 hc        1 MOL      0.113598
     69 N6          1.3620   -0.9980    0.5530 n         1 MOL     -0.042063
     70 C23        -0.1060   -1.0990    0.8540 c3        1 MOL     -0.226874
     71 C24        -0.6120   -2.4870    0.4100 c         1 MOL      0.538921
     72 O13         0.1980   -3.3570   -0.0710 o         1 MOL     -0.560697
     73 H30         1.7030   -0.4790   -0.2400 hn        1 MOL      0.253822
     74 H31        -0.6900   -0.3570    0.3250 h1        1 MOL      0.137344
     75 H32        -0.3100   -1.0450    1.9320 h1        1 MOL      0.137344
     76 N7         -1.9370   -2.7880    0.5710 n         1 MOL     -0.433647
     77 C25        -2.5930   -4.0600    0.1400 c3        1 MOL      0.119227
     78 C26        -3.4930   -3.8930   -1.0880 c         1 MOL      0.311328
     79 O14        -3.8390   -4.8960   -1.7320 o         1 MOL     -0.515159
     80 C27        -3.3870   -4.7510    1.3020 c3        1 MOL     -0.133486
     81 C28        -4.5360   -3.8290    1.8810 c3        1 MOL     -0.430010
     82 C29        -5.6700   -3.5130    0.9250 c         1 MOL      0.335387
     83 N8         -6.4000   -4.5030    0.5460 n         1 MOL     -0.504070
     84 O15        -5.9260   -2.3240    0.6960 o         1 MOL     -0.439924
     85 H33        -2.4360   -2.0580    1.0610 hn        1 MOL      0.301683
     86 H34        -1.9270   -4.8940   -0.0810 h1        1 MOL      0.127422
     87 H35        -2.6160   -4.9490    2.0400 hc        1 MOL      0.081544
     88 H36        -3.8640   -5.6840    0.9940 hc        1 MOL      0.081544
     89 H37        -4.1840   -2.8970    2.2970 hc        1 MOL      0.175013
     90 H38        -4.9260   -4.4830    2.6570 hc        1 MOL      0.175013
     91 H39        -6.1910   -5.3930    0.9710 hn        1 MOL      0.310998
     92 H40        -7.3710   -4.3420    0.2980 hn        1 MOL      0.310998
     93 N9         -3.7870   -2.6430   -1.5490 n         1 MOL     -0.030059
     94 C30        -4.0930   -2.3390   -2.9570 c3        1 MOL     -0.139009
     95 C31        -5.4290   -1.5610   -3.0260 c         1 MOL      0.345944
     96 O16        -5.8030   -1.1660   -4.1340 o         1 MOL     -0.552903
     97 C32        -2.9700   -1.5510   -3.7250 c3        1 MOL      0.070069
     98 C33        -1.7140   -2.4850   -3.7450 c3        1 MOL     -0.046197
     99 C34        -2.5420   -0.2810   -3.0890 c3        1 MOL     -0.046197
    100 H41        -3.2890   -1.9720   -0.9870 hn        1 MOL      0.125573
    101 H42        -4.3200   -3.2650   -3.4680 h1        1 MOL      0.127618
    102 H43        -3.2070   -1.3630   -4.7720 hc        1 MOL      0.044035
    103 H44        -1.8530   -3.4290   -4.2630 hc        1 MOL      0.007061
    104 H45        -0.9210   -1.9630   -4.2970 hc        1 MOL      0.007061
    105 H46        -1.2880   -2.8090   -2.8040 hc        1 MOL      0.007061
    106 H47        -3.3650    0.4190   -2.9690 hc        1 MOL      0.007061
    107 H48        -2.0270   -0.3670   -2.1360 hc        1 MOL      0.007061
    108 H49        -1.8270    0.2460   -3.7240 hc        1 MOL      0.007061
    109 N10        -6.0140   -1.2320   -1.8950 n         1 MOL     -0.008088
    110 C35        -7.2390   -0.4250   -1.8160 c3        1 MOL     -0.061591
    111 C36        -7.0220    1.0060   -1.1600 c         1 MOL      0.507055
    112 O17        -7.9710    1.7540   -1.2990 o         1 MOL     -0.532201
    113 C37        -8.4010   -1.1950   -1.0730 c3        1 MOL     -0.070090
    114 C38        -8.7200   -2.5180   -1.7510 c         1 MOL      0.603612
    115 N11        -8.8930   -2.5620   -3.0660 n         1 MOL     -0.781379
    116 O18        -8.7970   -3.5120   -1.0730 o         1 MOL     -0.559866
    117 H50        -5.6760   -1.7380   -1.0840 hn        1 MOL      0.126944
    118 H51        -7.5570   -0.2470   -2.8440 h1        1 MOL      0.065851
    119 H52        -9.2780   -0.5480   -1.1000 hc        1 MOL      0.028770
    120 H53        -8.2380   -1.3520   -0.0030 hc        1 MOL      0.028770
    121 H54        -8.8160   -1.7600   -3.6660 hn        1 MOL      0.366913
    122 H55        -9.2310   -3.4370   -3.4390 hn        1 MOL      0.366913
    123 N12        -5.9140    1.3460   -0.4620 n         1 MOL     -0.452582
    124 C39        -5.7730    2.6360    0.2380 c3        1 MOL      0.410668
    125 C40        -4.2960    2.9510    0.5070 c         1 MOL      0.409371
    126 O19        -3.4360    2.1610    0.1930 o         1 MOL     -0.446523
    127 C41        -6.6160    2.6570    1.5680 c3        1 MOL     -0.439223
    128 C42        -6.2320    1.5070    2.5020 ca        1 MOL      0.293015
    129 C43        -6.9330    0.2740    2.2890 ca        1 MOL     -0.334289
    130 C44        -5.2480    1.5990    3.5050 ca        1 MOL     -0.334289
    131 C45        -6.6450   -0.8160    3.1510 ca        1 MOL     -0.161676
    132 C46        -4.9390    0.4620    4.2430 ca        1 MOL     -0.161676
    133 C47        -5.7280   -0.7010    4.1630 ca        1 MOL      0.224778
    134 O20        -5.4390   -1.7480    4.9350 oh        1 MOL     -0.443286
    135 H56        -5.0640    0.7900   -0.4860 hn        1 MOL      0.190816
    136 H57        -6.1090    3.4450   -0.4180 h1        1 MOL     -0.022096
    137 H58        -7.6500    2.5910    1.2360 hc        1 MOL      0.107940
    138 H59        -6.5600    3.5840    2.1230 hc        1 MOL      0.107940
    139 H60        -7.6280    0.2260    1.4590 ha        1 MOL      0.200046
    140 H61        -4.6710    2.5110    3.6010 ha        1 MOL      0.200046
    141 H62        -7.0640   -1.8040    3.0460 ha        1 MOL      0.153706
    142 H63        -4.1620    0.4960    5.0030 ha        1 MOL      0.153706
    143 H64        -5.9950   -2.4990    4.7170 ho        1 MOL      0.307124
    144 N13        -4.0640    4.1260    1.1090 n         1 MOL     -0.593150
    145 C48        -2.7690    4.7030    1.5200 c3        1 MOL      0.412200
    146 C49        -1.7620    5.0100    0.3840 c         1 MOL      0.214882
    147 O21        -1.1600    6.0310    0.5200 o         1 MOL     -0.490616
    148 C50        -2.1890    3.7930    2.6270 c3        1 MOL     -0.095481
    149 C51        -0.9710    4.4750    3.3330 c3        1 MOL     -0.299601
    150 C52        -0.7940    3.9700    4.7760 c         1 MOL      0.680127
    151 O22         0.3830    3.8140    5.1510 o         1 MOL     -0.706166
    152 O23        -1.7880    3.9960    5.5330 o         1 MOL     -0.706166
    153 H65        -4.8340    4.7660    1.2710 hn        1 MOL      0.280553
    154 H66        -2.8640    5.6750    1.9880 h1        1 MOL      0.001406
    155 H67        -2.0480    2.7410    2.4060 hc        1 MOL      0.047714
    156 H68        -3.0090    3.8400    3.3370 hc        1 MOL      0.047714
    157 H69        -1.0870    5.5570    3.3080 hc        1 MOL      0.088526
    158 H70        -0.0660    4.3440    2.7400 hc        1 MOL      0.088526
    159 N14        -1.7000    4.3630   -0.7410 n         1 MOL     -0.229900
    160 C53        -0.5600    4.4630   -1.6350 c3        1 MOL     -0.083562
    161 C54        -0.8500    5.3470   -2.8830 c         1 MOL      0.399075
    162 O24         0.0390    5.7610   -3.6150 o         1 MOL     -0.530579
    163 C55        -0.1700    3.0330   -2.0200 c3        1 MOL     -0.105787
    164 C56         0.3030    2.0760   -0.8660 c3        1 MOL      0.565184
    165 C57         1.5860    2.4950   -0.1080 c         1 MOL      0.415522
    166 O25         1.6990    3.6250    0.3940 o         1 MOL     -0.610317
    167 O26         2.4010    1.6080    0.1080 o         1 MOL     -0.610317
    168 H71        -2.1810    3.4740   -0.7230 hn        1 MOL      0.154928
    169 H72         0.2650    4.9470   -1.1250 h1        1 MOL      0.192705
    170 H73         0.5780    3.1700   -2.8000 hc        1 MOL      0.007856
    171 H74        -1.0130    2.5420   -2.5010 hc        1 MOL      0.007856
    172 H75         0.5000    1.0990   -1.3260 hc        1 MOL     -0.167810
    173 H76        -0.4820    2.0790   -0.1190 hc        1 MOL     -0.167810
    174 N15        -2.1000    5.6920   -3.1020 n         1 MOL     -0.103216
    175 C58        -2.7240    6.4920   -4.1200 c3        1 MOL     -0.136027
    176 H77        -3.5720    7.0270   -3.6920 h1        1 MOL      0.060991
    177 H78        -2.0040    7.2090   -4.5130 h1        1 MOL      0.060991
    178 H79        -3.0730    5.8480   -4.9270 h1        1 MOL      0.060991
    179 H80        -2.7050    5.2830   -2.4140 hn        1 MOL      0.144394
    180 Ca1         4.5600    1.1320    1.3340 Ca        1 MOL      1.669134
    181 O27         3.3960    3.1410    2.5820 oh        1 MOL     -0.882999
    182 H81         3.1840    3.9160    3.0960 ho        1 MOL      0.426293
    183 H82         2.7840    3.1610    1.8400 ho        1 MOL      0.426293
    184 O28         6.0200    1.8000    3.5890 oh        1 MOL     -0.882999
    185 H83         6.8360    1.8320    4.0920 ho        1 MOL      0.426293
    186 H84         5.4150    2.3610    4.0710 ho        1 MOL      0.426293
@<TRIPOS>BOND
     1    1    2 1   
     2    1    4 1   
     3    1    5 1   
     4    1    6 1   
     5    2    3 2   
     6    2    7 1   
     7    7    8 1   
     8    7   15 1   
     9    8    9 1   
    10    8   11 1   
    11    8   16 1   
    12    9   10 2   
    13    9   19 1   
    14   11   12 1   
    15   11   17 1   
    16   11   18 1   
    17   12   13 1   
    18   12   14 1   
    19   19   20 1   
    20   19   27 1   
    21   20   21 1   
    22   20   23 1   
    23   20   28 1   
    24   21   22 2   
    25   21   38 1   
    26   23   24 1   
    27   23   25 1   
    28   23   29 1   
    29   24   26 1   
    30   24   30 1   
    31   24   31 1   
    32   25   32 1   
    33   25   33 1   
    34   25   34 1   
    35   26   35 1   
    36   26   36 1   
    37   26   37 1   
    38   38   39 1   
    39   38   46 1   
    40   39   40 1   
    41   39   42 1   
    42   39   47 1   
    43   40   41 2   
    44   40   50 1   
    45   42   43 1   
    46   42   48 1   
    47   42   49 1   
    48   43   44 1   
    49   43   45 1   
    50   50   51 1   
    51   50   54 1   
    52   51   52 1   
    53   51   55 1   
    54   51   56 1   
    55   52   53 2   
    56   52   57 1   
    57   57   58 1   
    58   57   65 1   
    59   58   59 1   
    60   58   61 1   
    61   58   66 1   
    62   59   60 2   
    63   59   69 1   
    64   61   62 1   
    65   61   67 1   
    66   61   68 1   
    67   62   63 1   
    68   62   64 1   
    69   69   70 1   
    70   69   73 1   
    71   70   71 1   
    72   70   74 1   
    73   70   75 1   
    74   71   72 2   
    75   71   76 1   
    76   76   77 1   
    77   76   85 1   
    78   77   78 1   
    79   77   80 1   
    80   77   86 1   
    81   78   79 2   
    82   78   93 1   
    83   80   81 1   
    84   80   87 1   
    85   80   88 1   
    86   81   82 1   
    87   81   89 1   
    88   81   90 1   
    89   82   83 1   
    90   82   84 2   
    91   83   91 1   
    92   83   92 1   
    93   93   94 1   
    94   93  100 1   
    95   94   95 1   
    96   94   97 1   
    97   94  101 1   
    98   95   96 2   
    99   95  109 1   
   100   97   98 1   
   101   97   99 1   
   102   97  102 1   
   103   98  103 1   
   104   98  104 1   
   105   98  105 1   
   106   99  106 1   
   107   99  107 1   
   108   99  108 1   
   109  109  110 1   
   110  109  117 1   
   111  110  111 1   
   112  110  113 1   
   113  110  118 1   
   114  111  112 2   
   115  111  123 1   
   116  113  114 1   
   117  113  119 1   
   118  113  120 1   
   119  114  115 1   
   120  114  116 2   
   121  115  121 1   
   122  115  122 1   
   123  123  124 1   
   124  123  135 1   
   125  124  125 1   
   126  124  127 1   
   127  124  136 1   
   128  125  126 2   
   129  125  144 1   
   130  127  128 1   
   131  127  137 1   
   132  127  138 1   
   133  128  129 ar  
   134  128  130 ar  
   135  129  131 ar  
   136  129  139 1   
   137  130  132 ar  
   138  130  140 1   
   139  131  133 ar  
   140  131  141 1   
   141  132  133 ar  
   142  132  142 1   
   143  133  134 1   
   144  134  143 1   
   145  144  145 1   
   146  144  153 1   
   147  145  146 1   
   148  145  148 1   
   149  145  154 1   
   150  146  147 2   
   151  146  159 1   
   152  148  149 1   
   153  148  155 1   
   154  148  156 1   
   155  149  150 1   
   156  149  157 1   
   157  149  158 1   
   158  150  151 1   
   159  150  152 1   
   160  159  160 1   
   161  159  168 1   
   162  160  161 1   
   163  160  163 1   
   164  160  169 1   
   165  161  162 2   
   166  161  174 1   
   167  163  164 1   
   168  163  170 1   
   169  163  171 1   
   170  164  165 1   
   171  164  172 1   
   172  164  173 1   
   173  165  166 1   
   174  165  167 1   
   175  174  175 1   
   176  174  179 1   
   177  175  176 1   
   178  175  177 1   
   179  175  178 1   
   180  181  182 1   
   181  181  183 1   
   182  184  185 1   
   183  184  186 1   
@<TRIPOS>SUBSTRUCTURE
     1 MOL         1 TEMP              0 ****  ****    0 ROOT
