@<TRIPOS>MOLECULE
MOL
  179   176     1     0     0
SMALL
resp


@<TRIPOS>ATOM
      1 C1         -3.3950   -0.7520    5.9900 c3        1 MOL     -0.417514
      2 C2         -3.0430   -1.1200    4.5910 c         1 MOL      0.736073
      3 O1         -3.8630   -1.0910    3.6400 o         1 MOL     -0.603171
      4 H1         -3.1630    0.2990    6.1580 hc        1 MOL      0.110217
      5 H2         -4.4600   -0.9190    6.1520 hc        1 MOL      0.110217
      6 H3         -2.8210   -1.3670    6.6830 hc        1 MOL      0.110217
      7 N1         -1.7550   -1.3960    4.3520 n         1 MOL     -0.569429
      8 C3         -1.2300   -1.7570    3.0590 c3        1 MOL      0.008029
      9 C4         -2.0070   -2.8910    2.2670 c         1 MOL      0.588144
     10 O2         -1.7900   -4.0170    2.5460 o         1 MOL     -0.520658
     11 C5          0.3340   -1.8520    3.2580 c3        1 MOL      0.175133
     12 C6          1.0250   -1.8060    1.9690 c         1 MOL      0.578127
     13 O3          2.2100   -1.5790    1.9000 o         1 MOL     -0.718999
     14 O4          0.3680   -2.0590    0.9440 o         1 MOL     -0.718999
     15 H4         -1.1220   -1.2750    5.1400 hn        1 MOL      0.306252
     16 H5         -1.4160   -0.8420    2.4930 h1        1 MOL     -0.103669
     17 H6          0.5540   -2.7510    3.8310 hc        1 MOL     -0.015117
     18 H7          0.6740   -1.0370    3.8960 hc        1 MOL     -0.015117
     19 N2         -2.8030   -2.5720    1.2410 n         1 MOL     -0.190390
     20 C7         -3.5910   -3.5960    0.4700 c3        1 MOL     -0.272464
     21 C8         -2.7470   -4.6080   -0.3070 c         1 MOL      0.643786
     22 O5         -3.1160   -5.7400   -0.3510 o         1 MOL     -0.560795
     23 C9         -4.6240   -2.9660   -0.4820 c3        1 MOL     -0.005324
     24 C10        -5.6920   -3.9810   -0.9930 c3        1 MOL      0.097929
     25 C11        -6.6850   -3.3710   -2.0370 c3        1 MOL     -0.297064
     26 C12        -7.6410   -4.4640   -2.5900 c3        1 MOL      0.084292
     27 N3         -8.7650   -3.8550   -3.3940 n4        1 MOL     -0.321275
     28 H8         -2.9670   -1.6200    0.9430 hn        1 MOL      0.247786
     29 H9         -4.0820   -4.2340    1.2050 h1        1 MOL      0.140770
     30 H10        -4.0900   -2.4830   -1.3030 hc        1 MOL      0.038530
     31 H11        -5.2150   -2.1650   -0.0340 hc        1 MOL      0.038530
     32 H12        -6.2350   -4.3960   -0.1460 hc        1 MOL      0.023088
     33 H13        -5.1450   -4.8150   -1.4280 hc        1 MOL      0.023088
     34 H14        -6.1720   -2.8830   -2.8690 hc        1 MOL      0.115491
     35 H15        -7.3120   -2.7620   -1.3800 hc        1 MOL      0.115491
     36 H16        -8.0060   -5.0190   -1.7220 hx        1 MOL      0.077023
     37 H17        -7.0100   -5.0790   -3.2410 hx        1 MOL      0.077023
     38 H18        -9.3640   -4.5170   -3.8640 hn        1 MOL      0.310420
     39 H19        -9.3500   -3.3300   -2.7680 hn        1 MOL      0.310420
     40 H20        -8.4870   -3.2320   -4.1380 hn        1 MOL      0.310420
     41 N4         -1.5970   -4.1800   -0.7760 n         1 MOL     -0.326959
     42 C13        -0.5800   -5.0010   -1.4090 c3        1 MOL     -0.051589
     43 C14         0.4850   -5.5790   -0.4900 c         1 MOL      0.440931
     44 O6          1.1950   -6.4820   -0.9010 o         1 MOL     -0.537295
     45 C15         0.0440   -4.2550   -2.5920 c3        1 MOL     -0.227246
     46 C16         0.6550   -2.9200   -2.2050 c         1 MOL      0.754550
     47 O7          1.7600   -3.0020   -1.7300 o         1 MOL     -0.704931
     48 O8          0.1650   -1.8220   -2.3880 o         1 MOL     -0.704931
     49 H21        -1.4000   -3.1870   -0.7670 hn        1 MOL      0.139161
     50 H22        -1.1710   -5.8040   -1.8650 h1        1 MOL      0.118992
     51 H23        -0.7310   -4.1120   -3.3390 hc        1 MOL      0.067867
     52 H24         0.8060   -4.7570   -3.1900 hc        1 MOL      0.067867
     53 N5          0.7620   -4.9330    0.6780 n         1 MOL      0.013208
     54 C17         1.8340   -5.2760    1.5870 c3        1 MOL     -0.342251
     55 C18         3.2550   -5.0860    1.0600 c         1 MOL      0.613924
     56 O9          4.1870   -5.6240    1.6430 o         1 MOL     -0.591542
     57 H25         0.2520   -4.0760    0.8620 hn        1 MOL      0.045617
     58 H26         1.7800   -6.3180    1.8980 h1        1 MOL      0.148569
     59 H27         1.8240   -4.6130    2.4530 h1        1 MOL      0.148569
     60 N6          3.5430   -4.2770    0.0090 n         1 MOL     -0.176088
     61 C19         4.8260   -3.9350   -0.6180 c3        1 MOL     -0.035657
     62 C20         5.0800   -2.3670   -0.8320 c         1 MOL      0.584490
     63 O10         4.1490   -1.5370   -0.8540 o         1 MOL     -0.571951
     64 C21         5.0330   -4.8490   -1.8460 c3        1 MOL     -0.009189
     65 C22         4.8800   -4.2170   -3.1570 c         1 MOL      0.568016
     66 N7          3.7090   -3.7810   -3.5070 n         1 MOL     -0.707045
     67 O11         5.8460   -3.9410   -3.8040 o         1 MOL     -0.602789
     68 H28         2.7570   -3.8620   -0.4820 hn        1 MOL      0.107171
     69 H29         5.5620   -4.2130    0.1320 h1        1 MOL      0.052889
     70 H30         4.4620   -5.7760   -1.7550 hc        1 MOL      0.028685
     71 H31         6.0450   -5.2500   -1.8650 hc        1 MOL      0.028685
     72 H32         2.9030   -3.8140   -2.9020 hn        1 MOL      0.338290
     73 H33         3.6120   -3.3280   -4.4110 hn        1 MOL      0.338290
     74 N8          6.3670   -2.0400   -0.9970 n         1 MOL     -0.414133
     75 C23         6.7460   -0.6280   -1.3550 c3        1 MOL     -0.067472
     76 C24         6.4200    0.3450   -0.2220 c         1 MOL      0.590273
     77 O12         6.6190    0.0220    0.9560 o         1 MOL     -0.506621
     78 H34         7.0810   -2.7460   -0.8640 hn        1 MOL      0.308830
     79 H35         6.4480   -0.3960   -2.3680 h1        1 MOL      0.087989
     80 H36         7.8270   -0.4650   -1.3680 h1        1 MOL      0.087989
     81 N9          5.8350    1.4530   -0.6400 n         1 MOL     -0.618355
     82 C25         5.3180    2.4950    0.2080 c3        1 MOL      0.230806
     83 C26         4.1920    1.9400    1.0490 c         1 MOL      0.385743
     84 O13         3.7650    0.8530    0.7630 o         1 MOL     -0.345992
     85 C27         4.9690    3.7350   -0.6450 c3        1 MOL     -0.268361
     86 C28         6.1040    4.3770   -1.4230 ca        1 MOL      0.141749
     87 C29         6.1650    4.2120   -2.8160 ca        1 MOL     -0.142903
     88 C30         7.0380    5.1300   -0.7510 ca        1 MOL     -0.142903
     89 C31         7.2180    4.8440   -3.5180 ca        1 MOL     -0.277704
     90 C32         8.0720    5.8260   -1.4550 ca        1 MOL     -0.277704
     91 C33         8.1130    5.7130   -2.8310 ca        1 MOL      0.333841
     92 O14         8.7670    6.6400   -3.5800 oh        1 MOL     -0.470774
     93 H37         5.5920    1.3900   -1.6220 hn        1 MOL      0.288272
     94 H38         5.9790    2.8980    0.9730 h1        1 MOL      0.060428
     95 H39         4.6120    4.5640   -0.0330 hc        1 MOL      0.055355
     96 H40         4.3310    3.4510   -1.4800 hc        1 MOL      0.055355
     97 H41         5.4730    3.5310   -3.2720 ha        1 MOL      0.122305
     98 H42         7.0240    5.1940    0.3270 ha        1 MOL      0.122305
     99 H43         7.3340    4.7160   -4.5870 ha        1 MOL      0.164169
    100 H44         8.6920    6.5140   -0.8960 ha        1 MOL      0.164169
    101 H45         9.2260    7.2910   -3.0420 ho        1 MOL      0.367155
    102 N10         3.7600    2.6590    2.1000 n         1 MOL     -0.581426
    103 C34         2.7000    2.3060    3.0610 c3        1 MOL      0.298048
    104 C35         1.3240    1.9620    2.4340 c         1 MOL      0.470414
    105 O15         1.2110    1.1170    1.5360 o         1 MOL     -0.616538
    106 C36         3.1670    1.2000    4.0120 c3        1 MOL      0.109991
    107 C37         2.2190    1.2030    5.2260 c3        1 MOL     -0.253272
    108 C38         4.6330    1.3190    4.5600 c3        1 MOL     -0.107896
    109 C39         2.4660    2.2030    6.3700 c3        1 MOL     -0.129847
    110 H46         4.2750    3.5260    2.1900 hn        1 MOL      0.306504
    111 H47         2.5490    3.1930    3.6830 h1        1 MOL      0.009984
    112 H48         3.2200    0.2490    3.4870 hc        1 MOL      0.076117
    113 H49         2.3350    0.2350    5.7100 hc        1 MOL      0.091351
    114 H50         1.2030    1.3290    4.8580 hc        1 MOL      0.091351
    115 H51         4.9260    0.5200    5.2440 hc        1 MOL      0.033602
    116 H52         5.3690    1.1960    3.7590 hc        1 MOL      0.033602
    117 H53         4.8840    2.2680    5.0330 hc        1 MOL      0.033602
    118 H54         3.4480    2.1500    6.8470 hc        1 MOL      0.041111
    119 H55         2.4120    3.2100    5.9590 hc        1 MOL      0.041111
    120 H56         1.8100    1.9870    7.2070 hc        1 MOL      0.041111
    121 N11         0.2160    2.6400    2.9570 n         1 MOL     -0.710402
    122 C40        -1.1710    2.1580    2.8220 c3        1 MOL      0.136030
    123 C41        -1.8700    2.5470    1.5350 c         1 MOL      0.445499
    124 O16        -3.1170    2.3950    1.5790 o         1 MOL     -0.553459
    125 C42        -1.8420    2.5790    4.1320 c3        1 MOL      0.063808
    126 O17        -1.1390    2.3060    5.3270 oh        1 MOL     -0.660795
    127 H57         0.3550    3.2040    3.7820 hn        1 MOL      0.382302
    128 H58        -1.1580    1.0650    2.8680 h1        1 MOL      0.266857
    129 H59        -2.7710    2.0070    4.1880 h1        1 MOL      0.076533
    130 H60        -2.1070    3.6370    4.1290 h1        1 MOL      0.076533
    131 H61        -1.6950    2.1880    6.0990 ho        1 MOL      0.430709
    132 N12        -1.2590    2.9680    0.4320 n         1 MOL     -0.379611
    133 C43        -1.8170    3.0340   -0.9700 c3        1 MOL     -0.041150
    134 C44        -1.6010    1.5990   -1.6240 c         1 MOL      0.709626
    135 O18        -0.5760    0.9240   -1.4070 o         1 MOL     -0.592081
    136 C45        -1.2180    4.2170   -1.7290 c3        1 MOL     -0.283050
    137 H62        -0.2540    2.9500    0.4940 hn        1 MOL      0.297199
    138 H63        -2.8630    3.3090   -0.8790 h1        1 MOL      0.186817
    139 H64        -1.5410    4.1680   -2.7660 hc        1 MOL      0.087569
    140 H65        -1.6430    5.1430   -1.3480 hc        1 MOL      0.087569
    141 H66        -0.1470    4.3710   -1.5590 hc        1 MOL      0.087569
    142 N13        -2.5980    1.0860   -2.3780 n         1 MOL     -0.715362
    143 C46        -4.0260    1.4500   -2.3300 c3        1 MOL      0.325793
    144 C47        -4.3350    2.7480   -3.1230 c         1 MOL      0.515241
    145 O19        -3.8570    2.9830   -4.2400 o         1 MOL     -0.571705
    146 C48        -4.9430    0.2830   -2.9050 c3        1 MOL     -0.216346
    147 H67        -2.4090    0.2540   -2.9100 hn        1 MOL      0.361972
    148 H68        -4.4490    1.5260   -1.3360 h1        1 MOL      0.081760
    149 H69        -5.0420   -0.5830   -2.2540 hc        1 MOL      0.055904
    150 H70        -5.8930    0.7660   -3.1110 hc        1 MOL      0.055904
    151 H71        -4.5420   -0.0650   -3.8540 hc        1 MOL      0.055904
    152 N14        -5.2980    3.5290   -2.6750 n         1 MOL     -0.574893
    153 C49        -6.0080    3.5900   -1.3940 c3        1 MOL     -0.033346
    154 C50        -6.0990    4.9990   -0.7090 c         1 MOL      0.455848
    155 O20        -5.9160    4.9720    0.4870 o         1 MOL     -0.465108
    156 C51        -7.4590    3.0840   -1.4930 c3        1 MOL      0.200740
    157 C52        -8.1830    2.7870   -0.1620 c3        1 MOL     -0.223733
    158 C53        -9.3470    1.8800   -0.2100 c         1 MOL      0.707063
    159 O21       -10.3310    2.2040    0.4900 o         1 MOL     -0.718797
    160 O22        -9.3020    0.8500   -0.9450 o         1 MOL     -0.718797
    161 H72        -5.6900    4.1150   -3.4060 hn        1 MOL      0.326617
    162 H73        -5.4400    3.0090   -0.6690 h1        1 MOL      0.066842
    163 H74        -7.4220    2.0940   -1.9360 hc        1 MOL     -0.058843
    164 H75        -8.0620    3.7920   -2.0710 hc        1 MOL     -0.058843
    165 H76        -8.4300    3.7300    0.3460 hc        1 MOL      0.053990
    166 H77        -7.4990    2.3350    0.5630 hc        1 MOL      0.053990
    167 N15        -6.3340    6.1440   -1.4670 n         1 MOL     -0.371829
    168 C54        -6.2680    7.4980   -0.8650 c3        1 MOL     -0.030422
    169 H78        -5.2440    7.8710   -0.9210 h1        1 MOL      0.059894
    170 H79        -6.9290    8.1720   -1.4100 h1        1 MOL      0.059894
    171 H80        -6.5790    7.4480    0.1790 h1        1 MOL      0.059894
    172 H81        -6.4790    6.0650   -2.4520 hn        1 MOL      0.274239
    173 Ca1         1.8000   -0.4290   -0.6240 Ca        1 MOL      1.802665
    174 O23         1.6590    2.4750   -0.9020 oh        1 MOL     -0.854700
    175 H82         1.5410    3.3240   -0.4940 ho        1 MOL      0.423412
    176 H83         1.7080    2.6580   -1.8410 ho        1 MOL      0.423412
    177 O24         2.7690    0.0540   -3.0690 oh        1 MOL     -0.854700
    178 H84         3.6470    0.4120   -3.2390 ho        1 MOL      0.423412
    179 H85         2.3260    0.1030   -3.9150 ho        1 MOL      0.423412
@<TRIPOS>BOND
     1    1    2 1   
     2    1    4 1   
     3    1    5 1   
     4    1    6 1   
     5    2    3 2   
     6    2    7 1   
     7    7    8 1   
     8    7   15 1   
     9    8    9 1   
    10    8   11 1   
    11    8   16 1   
    12    9   10 2   
    13    9   19 1   
    14   11   12 1   
    15   11   17 1   
    16   11   18 1   
    17   12   13 1   
    18   12   14 1   
    19   19   20 1   
    20   19   28 1   
    21   20   21 1   
    22   20   23 1   
    23   20   29 1   
    24   21   22 2   
    25   21   41 1   
    26   23   24 1   
    27   23   30 1   
    28   23   31 1   
    29   24   25 1   
    30   24   32 1   
    31   24   33 1   
    32   25   26 1   
    33   25   34 1   
    34   25   35 1   
    35   26   27 1   
    36   26   36 1   
    37   26   37 1   
    38   27   38 1   
    39   27   39 1   
    40   27   40 1   
    41   41   42 1   
    42   41   49 1   
    43   42   43 1   
    44   42   45 1   
    45   42   50 1   
    46   43   44 2   
    47   43   53 1   
    48   45   46 1   
    49   45   51 1   
    50   45   52 1   
    51   46   47 1   
    52   46   48 1   
    53   53   54 1   
    54   53   57 1   
    55   54   55 1   
    56   54   58 1   
    57   54   59 1   
    58   55   56 2   
    59   55   60 1   
    60   60   61 1   
    61   60   68 1   
    62   61   62 1   
    63   61   64 1   
    64   61   69 1   
    65   62   63 2   
    66   62   74 1   
    67   64   65 1   
    68   64   70 1   
    69   64   71 1   
    70   65   66 1   
    71   65   67 2   
    72   66   72 1   
    73   66   73 1   
    74   74   75 1   
    75   74   78 1   
    76   75   76 1   
    77   75   79 1   
    78   75   80 1   
    79   76   77 2   
    80   76   81 1   
    81   81   82 1   
    82   81   93 1   
    83   82   83 1   
    84   82   85 1   
    85   82   94 1   
    86   83   84 2   
    87   83  102 1   
    88   85   86 1   
    89   85   95 1   
    90   85   96 1   
    91   86   87 ar  
    92   86   88 ar  
    93   87   89 ar  
    94   87   97 1   
    95   88   90 ar  
    96   88   98 1   
    97   89   91 ar  
    98   89   99 1   
    99   90   91 ar  
   100   90  100 1   
   101   91   92 1   
   102   92  101 1   
   103  102  103 1   
   104  102  110 1   
   105  103  104 1   
   106  103  106 1   
   107  103  111 1   
   108  104  105 2   
   109  104  121 1   
   110  106  107 1   
   111  106  108 1   
   112  106  112 1   
   113  107  109 1   
   114  107  113 1   
   115  107  114 1   
   116  108  115 1   
   117  108  116 1   
   118  108  117 1   
   119  109  118 1   
   120  109  119 1   
   121  109  120 1   
   122  121  122 1   
   123  121  127 1   
   124  122  123 1   
   125  122  125 1   
   126  122  128 1   
   127  123  124 2   
   128  123  132 1   
   129  125  126 1   
   130  125  129 1   
   131  125  130 1   
   132  126  131 1   
   133  132  133 1   
   134  132  137 1   
   135  133  134 1   
   136  133  136 1   
   137  133  138 1   
   138  134  135 2   
   139  134  142 1   
   140  136  139 1   
   141  136  140 1   
   142  136  141 1   
   143  142  143 1   
   144  142  147 1   
   145  143  144 1   
   146  143  146 1   
   147  143  148 1   
   148  144  145 2   
   149  144  152 1   
   150  146  149 1   
   151  146  150 1   
   152  146  151 1   
   153  152  153 1   
   154  152  161 1   
   155  153  154 1   
   156  153  156 1   
   157  153  162 1   
   158  154  155 2   
   159  154  167 1   
   160  156  157 1   
   161  156  163 1   
   162  156  164 1   
   163  157  158 1   
   164  157  165 1   
   165  157  166 1   
   166  158  159 1   
   167  158  160 1   
   168  167  168 1   
   169  167  172 1   
   170  168  169 1   
   171  168  170 1   
   172  168  171 1   
   173  174  175 1   
   174  174  176 1   
   175  177  178 1   
   176  177  179 1   
@<TRIPOS>SUBSTRUCTURE
     1 MOL         1 TEMP              0 ****  ****    0 ROOT
