@<TRIPOS>MOLECULE
MOL
  188   182     1     0     0
SMALL
resp


@<TRIPOS>ATOM
      1 C1          0.7400    1.6700    2.7310 c3        1 MOL     -0.303733
      2 C2          2.1000    1.7630    1.9330 c         1 MOL      0.643315
      3 O1          2.1300    2.5770    1.0120 o         1 MOL     -0.540156
      4 H1         -0.0530    2.1420    2.1520 hc        1 MOL      0.079760
      5 H2          0.4890    0.6230    2.9030 hc        1 MOL      0.079760
      6 H3          0.8440    2.1800    3.6880 hc        1 MOL      0.079760
      7 N1          3.1100    0.9620    2.2020 n         1 MOL     -0.534634
      8 C3          4.4320    0.9390    1.5250 c3        1 MOL      0.184529
      9 C4          4.8190   -0.4280    1.1040 c         1 MOL      0.539214
     10 O2          5.9000   -0.6240    0.6430 o         1 MOL     -0.454448
     11 C5          5.5490    1.6620    2.3410 c3        1 MOL     -0.163646
     12 C6          5.7820    1.1330    3.8350 c         1 MOL      0.614086
     13 O3          6.3370    1.9390    4.6800 o         1 MOL     -0.665451
     14 O4          5.3820    0.0300    4.2090 o         1 MOL     -0.665451
     15 H4          2.9480    0.2840    2.9350 hn        1 MOL      0.283213
     16 H5          4.2820    1.4930    0.6060 h1        1 MOL      0.052541
     17 H6          5.1620    2.6760    2.3880 hc        1 MOL      0.068487
     18 H7          6.4900    1.7160    1.7980 hc        1 MOL      0.068487
     19 N2          4.0060   -1.4680    1.2800 n         1 MOL     -0.705829
     20 C7          4.3580   -2.9110    1.0510 c3        1 MOL      0.235445
     21 C8          4.8440   -3.4240   -0.3050 c         1 MOL      0.464031
     22 O5          5.3780   -4.5360   -0.3340 o         1 MOL     -0.530215
     23 C9          5.3620   -3.3780    2.1150 c3        1 MOL     -0.291735
     24 C10         4.8140   -3.2730    3.4950 c3        1 MOL      0.163744
     25 C11         5.7080   -3.7510    4.6370 c3        1 MOL      0.089511
     26 C12         5.4760   -3.1860    6.0120 c3        1 MOL      0.052128
     27 N3          6.0890   -1.8310    6.1690 n4        1 MOL     -0.327028
     28 H8          3.2180   -1.3860    1.9030 hn        1 MOL      0.340410
     29 H9          3.4400   -3.4730    1.1870 h1        1 MOL      0.072101
     30 H10         6.2280   -2.7310    1.9620 hc        1 MOL      0.087414
     31 H11         5.5200   -4.4440    1.9940 hc        1 MOL      0.087414
     32 H12         3.8380   -3.7420    3.6120 hc        1 MOL     -0.037927
     33 H13         4.6000   -2.2400    3.7740 hc        1 MOL     -0.037927
     34 H14         6.7510   -3.6550    4.3480 hc        1 MOL     -0.014279
     35 H15         5.6250   -4.8350    4.7400 hc        1 MOL     -0.014279
     36 H16         5.9390   -3.8540    6.7380 hx        1 MOL      0.047056
     37 H17         4.4140   -3.2670    6.2540 hx        1 MOL      0.047056
     38 H18         5.8770   -1.1540    5.4560 hn        1 MOL      0.301730
     39 H19         5.8460   -1.3310    7.0100 hn        1 MOL      0.301730
     40 H20         7.1020   -1.8700    6.1720 hn        1 MOL      0.301730
     41 N4          4.5950   -2.6550   -1.3270 n         1 MOL     -0.337528
     42 C13         4.8410   -2.9390   -2.7160 c3        1 MOL      0.123175
     43 C14         5.4790   -1.7140   -3.3870 c         1 MOL      0.378589
     44 O6          5.7100   -1.7040   -4.6270 o         1 MOL     -0.531060
     45 C15         3.5130   -3.3300   -3.4560 c3        1 MOL     -0.055946
     46 C16         2.4930   -4.2680   -2.7100 c         1 MOL      0.630297
     47 O7          1.6640   -3.7290   -1.9170 o         1 MOL     -0.719737
     48 O8          2.5890   -5.4710   -2.8060 o         1 MOL     -0.719737
     49 H21         4.1710   -1.7630   -1.1170 hn        1 MOL      0.255872
     50 H22         5.5640   -3.7560   -2.7390 h1        1 MOL      0.081841
     51 H23         3.7890   -3.7340   -4.4340 hc        1 MOL      0.012146
     52 H24         2.9980   -2.3850   -3.6110 hc        1 MOL      0.012146
     53 N5          5.9410   -0.7310   -2.5830 n         1 MOL     -0.168746
     54 C17         6.5830    0.5240   -2.9830 c3        1 MOL     -0.034094
     55 C18         7.3890    1.1400   -1.8300 c         1 MOL      0.486997
     56 O9          8.3330    0.5490   -1.3550 o         1 MOL     -0.534932
     57 H25         5.7870   -0.8330   -1.5840 hn        1 MOL      0.105173
     58 H26         5.8080    1.2400   -3.2670 h1        1 MOL      0.073316
     59 H27         7.2460    0.2730   -3.8080 h1        1 MOL      0.073316
     60 N6          7.1130    2.3070   -1.2680 n         1 MOL     -0.409448
     61 C19         5.9820    3.1990   -1.6630 c3        1 MOL      0.109127
     62 C20         5.5470    4.1700   -0.5310 c         1 MOL      0.586276
     63 O10         6.3650    4.5430    0.3190 o         1 MOL     -0.581330
     64 C21         6.4400    3.9760   -2.9630 c3        1 MOL     -0.415063
     65 C22         5.2260    4.2450   -3.7090 c         1 MOL      0.617967
     66 N7          4.8820    5.4950   -3.7780 n         1 MOL     -0.710162
     67 O11         4.5460    3.3360   -4.1420 o         1 MOL     -0.544315
     68 H28         7.7040    2.5390   -0.4820 hn        1 MOL      0.293406
     69 H29         5.1500    2.5250   -1.8740 h1        1 MOL      0.112016
     70 H30         7.0870    3.3680   -3.5940 hc        1 MOL      0.142052
     71 H31         7.0150    4.8460   -2.6570 hc        1 MOL      0.142052
     72 H32         5.5240    6.1910   -3.4390 hn        1 MOL      0.350401
     73 H33         4.0730    5.7570   -4.3220 hn        1 MOL      0.350401
     74 N8          4.3430    4.6080   -0.2940 n         1 MOL     -0.463521
     75 C23         3.0990    4.4670   -1.1130 c3        1 MOL     -0.190322
     76 C24         1.9140    5.1980   -0.4920 c         1 MOL      0.785557
     77 O12         2.0200    6.1860    0.1900 o         1 MOL     -0.594327
     78 H34         4.1660    5.0770    0.5870 hn        1 MOL      0.324136
     79 H35         2.8620    3.4000   -1.1040 h1        1 MOL      0.079911
     80 H36         3.1930    4.9350   -2.0970 h1        1 MOL      0.079911
     81 N9          0.7250    4.6970   -0.7400 n         1 MOL     -0.561231
     82 C25        -0.4820    5.3320   -0.2880 c3        1 MOL     -0.053669
     83 C26        -1.5790    4.3250   -0.0140 c         1 MOL      0.796666
     84 O13        -1.5300    3.2060   -0.4140 o         1 MOL     -0.543058
     85 C27        -0.9130    6.2630   -1.4060 c3        1 MOL     -0.150294
     86 C28        -1.9910    7.1470   -0.9430 ca        1 MOL      0.081006
     87 C29        -3.3230    7.0190   -1.3750 ca        1 MOL     -0.158147
     88 C30        -1.5900    8.2760   -0.1310 ca        1 MOL     -0.158147
     89 C31        -4.2830    7.9050   -0.8380 ca        1 MOL     -0.275429
     90 C32        -2.5550    9.1590    0.3290 ca        1 MOL     -0.275429
     91 C33        -3.8780    8.9880   -0.0100 ca        1 MOL      0.366277
     92 O14        -4.7350    9.8840    0.4680 oh        1 MOL     -0.500335
     93 H37         0.8250    3.8440   -1.2700 hn        1 MOL      0.299041
     94 H38        -0.2550    5.8380    0.6520 h1        1 MOL      0.109887
     95 H39        -1.2940    5.6650   -2.2300 hc        1 MOL      0.078797
     96 H40        -0.1000    6.8490   -1.8520 hc        1 MOL      0.078797
     97 H41        -3.5790    6.1760   -2.0050 ha        1 MOL      0.139273
     98 H42        -0.5550    8.2760    0.1820 ha        1 MOL      0.139273
     99 H43        -5.3240    7.7200   -1.0600 ha        1 MOL      0.142741
    100 H44        -2.2890    9.9330    1.0390 ha        1 MOL      0.142741
    101 H45        -4.2890   10.5320    1.0210 ho        1 MOL      0.365661
    102 N10        -2.6000    4.6640    0.8160 n         1 MOL     -0.555488
    103 C34        -3.8050    3.8260    1.1600 c3        1 MOL     -0.266673
    104 C35        -4.6880    3.5340   -0.0110 c         1 MOL      0.634995
    105 O15        -4.9790    4.2770   -0.8920 o         1 MOL     -0.467048
    106 C36        -4.7110    4.4300    2.2760 c3        1 MOL      0.133998
    107 C37        -4.1000    4.2990    3.7160 c3        1 MOL     -0.046085
    108 C38        -4.9050    5.8960    1.9870 c3        1 MOL     -0.147077
    109 C39        -5.0310    4.5500    4.8540 c3        1 MOL     -0.322191
    110 H46        -2.4910    5.5870    1.2140 hn        1 MOL      0.253823
    111 H47        -3.4500    2.9030    1.6250 h1        1 MOL      0.151432
    112 H48        -5.7170    4.0150    2.2290 hc        1 MOL      0.059920
    113 H49        -3.3130    5.0450    3.7920 hc        1 MOL      0.054599
    114 H50        -3.7440    3.2750    3.8490 hc        1 MOL      0.054599
    115 H51        -4.0130    6.4580    2.2470 hc        1 MOL      0.047428
    116 H52        -5.2290    6.0620    0.9600 hc        1 MOL      0.047428
    117 H53        -5.6610    6.2590    2.6780 hc        1 MOL      0.047428
    118 H54        -4.5430    4.0770    5.7080 hc        1 MOL      0.084855
    119 H55        -5.0860    5.6140    5.0950 hc        1 MOL      0.084855
    120 H56        -6.0220    4.1610    4.6340 hc        1 MOL      0.084855
    121 N11        -5.1460    2.3020   -0.0030 n         1 MOL     -0.547776
    122 C40        -6.1130    1.7880   -0.9970 c3        1 MOL      0.213089
    123 C41        -5.8710    0.3810   -1.5150 c         1 MOL      0.552759
    124 O16        -5.3430   -0.4280   -0.7850 o         1 MOL     -0.457171
    125 C42        -7.5290    1.8080   -0.3530 c3        1 MOL      0.329729
    126 O17        -7.8070    2.6970    0.6850 oh        1 MOL     -0.617215
    127 H57        -4.7990    1.6980    0.7330 hn        1 MOL      0.269636
    128 H58        -6.1430    2.4750   -1.8480 h1        1 MOL     -0.000656
    129 H59        -7.6830    0.8220    0.0890 h1        1 MOL     -0.063088
    130 H60        -8.2220    1.8340   -1.1950 h1        1 MOL     -0.063088
    131 H61        -8.7540    2.8130    0.7570 ho        1 MOL      0.411242
    132 N12        -6.3820    0.0500   -2.6910 n         1 MOL     -0.639431
    133 C43        -6.3460   -1.2970   -3.3360 c3        1 MOL      0.351231
    134 C44        -6.7320   -2.5150   -2.4290 c         1 MOL      0.307363
    135 O18        -6.2150   -3.5820   -2.6610 o         1 MOL     -0.413316
    136 C45        -5.1670   -1.4740   -4.3580 c3        1 MOL     -0.268221
    137 H62        -6.6960    0.8220   -3.2670 hn        1 MOL      0.320722
    138 H63        -7.2080   -1.1990   -4.0040 h1        1 MOL      0.013797
    139 H64        -5.3610   -2.4370   -4.8330 hc        1 MOL      0.085731
    140 H65        -5.1220   -0.7610   -5.1800 hc        1 MOL      0.085731
    141 H66        -4.2070   -1.3890   -3.8580 hc        1 MOL      0.085731
    142 N13        -7.6300   -2.3370   -1.4380 n         1 MOL     -0.349889
    143 C46        -8.0040   -3.3710   -0.4810 c3        1 MOL      0.256919
    144 C47        -6.7940   -4.0790    0.2830 c         1 MOL      0.390077
    145 O19        -6.8230   -5.3010    0.4720 o         1 MOL     -0.504573
    146 C48        -8.8660   -4.4480   -1.1470 c3        1 MOL     -0.290573
    147 H67        -8.1640   -1.4830   -1.4080 hn        1 MOL      0.207201
    148 H68        -8.6190   -2.8740    0.2630 h1        1 MOL      0.026503
    149 H69        -9.6780   -4.0000   -1.7320 hc        1 MOL      0.074831
    150 H70        -8.2100   -5.1910   -1.5990 hc        1 MOL      0.074831
    151 H71        -9.4060   -4.8990   -0.3240 hc        1 MOL      0.074831
    152 N14        -5.7680   -3.3570    0.7160 n         1 MOL     -0.162125
    153 C49        -4.4620   -3.8880    1.2050 c3        1 MOL     -0.013471
    154 C50        -4.6810   -4.7150    2.4430 c         1 MOL      0.372015
    155 O20        -3.9210   -5.6820    2.6900 o         1 MOL     -0.509718
    156 C51        -3.4630   -2.6860    1.4540 c3        1 MOL      0.017661
    157 C52        -2.0770   -3.1730    1.8070 c3        1 MOL      0.082455
    158 C53        -1.3590   -3.9420    0.6800 c         1 MOL      0.474574
    159 O21        -0.4420   -4.6600    1.0550 o         1 MOL     -0.644590
    160 O22        -1.4870   -3.7390   -0.5420 o         1 MOL     -0.644590
    161 H72        -5.7930   -2.3890    0.4230 hn        1 MOL      0.067423
    162 H73        -4.0190   -4.5940    0.5030 h1        1 MOL      0.104202
    163 H74        -3.7370   -2.1740    2.3720 hc        1 MOL      0.009776
    164 H75        -3.4620   -2.0290    0.5890 hc        1 MOL      0.009776
    165 H76        -1.9920   -3.7830    2.6970 hc        1 MOL     -0.012719
    166 H77        -1.5220   -2.2580    2.0060 hc        1 MOL     -0.012719
    167 N15        -5.7470   -4.3910    3.2460 n         1 MOL     -0.163611
    168 C54        -6.0230   -4.9920    4.5770 c3        1 MOL     -0.283210
    169 H78        -5.1130   -5.4500    4.9640 h1        1 MOL      0.119113
    170 H79        -6.3580   -4.2150    5.2650 h1        1 MOL      0.119113
    171 H80        -6.7990   -5.7510    4.4800 h1        1 MOL      0.119113
    172 H81        -6.4270   -3.7570    2.8460 hn        1 MOL      0.146729
    173 Ca1         0.2190   -5.8130   -1.2790 Ca        1 MOL      1.682097
    174 O23        -2.4090   -6.6780   -1.6740 oh        1 MOL     -0.821053
    175 H82        -3.2500   -6.2790   -1.9130 ho        1 MOL      0.411721
    176 H83        -2.6470   -7.5420   -1.3420 ho        1 MOL      0.411721
    177 O24         2.5680   -6.0940    0.0160 oh        1 MOL     -0.821053
    178 H84         2.4250   -6.8130    0.6330 ho        1 MOL      0.411721
    179 H85         3.4290   -6.2600   -0.3580 ho        1 MOL      0.411721
    180 O25         0.2240   -8.3910   -1.9610 oh        1 MOL     -0.821053
    181 H86         0.2490   -8.4520   -2.9190 ho        1 MOL      0.411721
    182 H87        -0.3090   -9.1400   -1.6950 ho        1 MOL      0.411721
    183 O26        -0.6540   -5.1510   -3.6270 oh        1 MOL     -0.821053
    184 H88        -1.1900   -5.7840   -4.1030 ho        1 MOL      0.411721
    185 H89        -0.1800   -4.6810   -4.3100 ho        1 MOL      0.411721
    186 O27         0.4600   -7.7710    0.9660 oh        1 MOL     -0.821053
    187 H90         0.4280   -8.7060    0.7640 ho        1 MOL      0.411721
    188 H91        -0.2270   -7.6430    1.6190 ho        1 MOL      0.411721
@<TRIPOS>BOND
     1    1    2 1   
     2    1    4 1   
     3    1    5 1   
     4    1    6 1   
     5    2    3 2   
     6    2    7 1   
     7    7    8 1   
     8    7   15 1   
     9    8    9 1   
    10    8   11 1   
    11    8   16 1   
    12    9   10 2   
    13    9   19 1   
    14   11   12 1   
    15   11   17 1   
    16   11   18 1   
    17   12   13 1   
    18   12   14 1   
    19   19   20 1   
    20   19   28 1   
    21   20   21 1   
    22   20   23 1   
    23   20   29 1   
    24   21   22 2   
    25   21   41 1   
    26   23   24 1   
    27   23   30 1   
    28   23   31 1   
    29   24   25 1   
    30   24   32 1   
    31   24   33 1   
    32   25   26 1   
    33   25   34 1   
    34   25   35 1   
    35   26   27 1   
    36   26   36 1   
    37   26   37 1   
    38   27   38 1   
    39   27   39 1   
    40   27   40 1   
    41   41   42 1   
    42   41   49 1   
    43   42   43 1   
    44   42   45 1   
    45   42   50 1   
    46   43   44 2   
    47   43   53 1   
    48   45   46 1   
    49   45   51 1   
    50   45   52 1   
    51   46   47 1   
    52   46   48 1   
    53   53   54 1   
    54   53   57 1   
    55   54   55 1   
    56   54   58 1   
    57   54   59 1   
    58   55   56 2   
    59   55   60 1   
    60   60   61 1   
    61   60   68 1   
    62   61   62 1   
    63   61   64 1   
    64   61   69 1   
    65   62   63 2   
    66   62   74 1   
    67   64   65 1   
    68   64   70 1   
    69   64   71 1   
    70   65   66 1   
    71   65   67 2   
    72   66   72 1   
    73   66   73 1   
    74   74   75 1   
    75   74   78 1   
    76   75   76 1   
    77   75   79 1   
    78   75   80 1   
    79   76   77 2   
    80   76   81 1   
    81   81   82 1   
    82   81   93 1   
    83   82   83 1   
    84   82   85 1   
    85   82   94 1   
    86   83   84 2   
    87   83  102 1   
    88   85   86 1   
    89   85   95 1   
    90   85   96 1   
    91   86   87 ar  
    92   86   88 ar  
    93   87   89 ar  
    94   87   97 1   
    95   88   90 ar  
    96   88   98 1   
    97   89   91 ar  
    98   89   99 1   
    99   90   91 ar  
   100   90  100 1   
   101   91   92 1   
   102   92  101 1   
   103  102  103 1   
   104  102  110 1   
   105  103  104 1   
   106  103  106 1   
   107  103  111 1   
   108  104  105 2   
   109  104  121 1   
   110  106  107 1   
   111  106  108 1   
   112  106  112 1   
   113  107  109 1   
   114  107  113 1   
   115  107  114 1   
   116  108  115 1   
   117  108  116 1   
   118  108  117 1   
   119  109  118 1   
   120  109  119 1   
   121  109  120 1   
   122  121  122 1   
   123  121  127 1   
   124  122  123 1   
   125  122  125 1   
   126  122  128 1   
   127  123  124 2   
   128  123  132 1   
   129  125  126 1   
   130  125  129 1   
   131  125  130 1   
   132  126  131 1   
   133  132  133 1   
   134  132  137 1   
   135  133  134 1   
   136  133  136 1   
   137  133  138 1   
   138  134  135 2   
   139  134  142 1   
   140  136  139 1   
   141  136  140 1   
   142  136  141 1   
   143  142  143 1   
   144  142  147 1   
   145  143  144 1   
   146  143  146 1   
   147  143  148 1   
   148  144  145 2   
   149  144  152 1   
   150  146  149 1   
   151  146  150 1   
   152  146  151 1   
   153  152  153 1   
   154  152  161 1   
   155  153  154 1   
   156  153  156 1   
   157  153  162 1   
   158  154  155 2   
   159  154  167 1   
   160  156  157 1   
   161  156  163 1   
   162  156  164 1   
   163  157  158 1   
   164  157  165 1   
   165  157  166 1   
   166  158  159 1   
   167  158  160 1   
   168  167  168 1   
   169  167  172 1   
   170  168  169 1   
   171  168  170 1   
   172  168  171 1   
   173  174  175 1   
   174  174  176 1   
   175  177  178 1   
   176  177  179 1   
   177  180  181 1   
   178  180  182 1   
   179  183  184 1   
   180  183  185 1   
   181  186  187 1   
   182  186  188 1   
@<TRIPOS>SUBSTRUCTURE
     1 MOL         1 TEMP              0 ****  ****    0 ROOT
