@<TRIPOS>MOLECULE
MOL
  186   183     1     0     0
SMALL
resp


@<TRIPOS>ATOM
      1 C1        -11.3820    3.5630    4.5530 c3        1 MOL     -0.361270
      2 C2        -11.2590    3.0160    3.0670 c         1 MOL      0.713147
      3 O1        -11.5640    1.8450    2.8820 o         1 MOL     -0.559383
      4 H1        -10.4270    3.9890    4.8620 hc        1 MOL      0.091384
      5 H2        -12.1520    4.3330    4.5930 hc        1 MOL      0.091384
      6 H3        -11.6490    2.7440    5.2210 hc        1 MOL      0.091384
      7 N1        -11.0030    3.8450    2.0570 n         1 MOL     -0.563507
      8 C3        -10.9880    3.4780    0.6100 c3        1 MOL      0.041076
      9 C4         -9.8390    2.4880    0.2900 c         1 MOL      0.064410
     10 O2         -8.7420    2.4660    0.8800 o         1 MOL     -0.504474
     11 C5        -10.8770    4.7180   -0.3020 c3        1 MOL     -0.073159
     12 C6        -10.0100    5.8340    0.2440 c         1 MOL      0.708420
     13 O3         -9.0790    5.6060    1.0440 o         1 MOL     -0.710744
     14 O4        -10.1860    7.0230   -0.0630 o         1 MOL     -0.710744
     15 H4        -10.8590    4.8180    2.2220 hn        1 MOL      0.306716
     16 H5        -11.8900    2.9530    0.2980 h1        1 MOL      0.061532
     17 H6        -11.8750    5.1180   -0.4810 hc        1 MOL      0.064708
     18 H7        -10.4210    4.4010   -1.2500 hc        1 MOL      0.064708
     19 N2        -10.0450    1.4870   -0.5700 n         1 MOL      0.052412
     20 C7         -9.4530    0.1160   -0.5790 c3        1 MOL     -0.577035
     21 C8         -7.8890    0.0250   -0.7680 c         1 MOL      0.711986
     22 O5         -7.3280   -1.1160   -0.7930 o         1 MOL     -0.567521
     23 C9        -10.1690   -0.6780   -1.7430 c3        1 MOL     -0.151379
     24 C10       -11.7050   -0.8250   -1.6430 c3        1 MOL      0.101700
     25 C11       -12.3630   -1.7710   -2.7210 c3        1 MOL     -0.137272
     26 C12       -13.9450   -1.7530   -2.6550 c3        1 MOL      0.078002
     27 N3        -14.5340   -2.7260   -3.6800 n4        1 MOL     -0.328472
     28 H8        -10.7080    1.6790   -1.3100 hn        1 MOL      0.193263
     29 H9         -9.8790   -0.1860    0.3780 h1        1 MOL      0.306471
     30 H10        -9.8020   -1.7020   -1.6570 hc        1 MOL      0.104969
     31 H11        -9.8200   -0.4100   -2.7420 hc        1 MOL      0.104969
     32 H12       -12.2230    0.1150   -1.8380 hc        1 MOL     -0.002399
     33 H13       -11.8580   -1.1480   -0.6080 hc        1 MOL     -0.002399
     34 H14       -11.9610   -2.7610   -2.5170 hc        1 MOL      0.075047
     35 H15       -12.0520   -1.4580   -3.7120 hc        1 MOL      0.075047
     36 H16       -14.4220   -0.7760   -2.7860 hx        1 MOL      0.071694
     37 H17       -14.3340   -2.0720   -1.6850 hx        1 MOL      0.071694
     38 H18       -14.1040   -3.6330   -3.5740 hn        1 MOL      0.273319
     39 H19       -15.5330   -2.7710   -3.5270 hn        1 MOL      0.273319
     40 H20       -14.3700   -2.3540   -4.6070 hn        1 MOL      0.273319
     41 N4         -7.2030    1.0830   -0.9920 n         1 MOL     -0.019281
     42 C13        -5.6960    1.0620   -1.2230 c3        1 MOL     -0.554939
     43 C14        -4.9960    1.3340    0.1360 c         1 MOL      0.669950
     44 O6         -5.6130    1.9840    0.9610 o         1 MOL     -0.693378
     45 C15        -5.2440    2.1180   -2.2620 c3        1 MOL     -0.042153
     46 C16        -5.8630    3.5270   -1.9900 c         1 MOL      0.544755
     47 O7         -5.5990    4.4420   -2.7990 o         1 MOL     -0.642481
     48 O8         -6.6870    3.7380   -1.0590 o         1 MOL     -0.642481
     49 H21        -7.7160    1.9520   -0.9340 hn        1 MOL      0.184522
     50 H22        -5.3170    0.1400   -1.6790 h1        1 MOL      0.216670
     51 H23        -5.5530    1.7950   -3.2580 hc        1 MOL      0.083469
     52 H24        -4.1630    2.2530   -2.2390 hc        1 MOL      0.083469
     53 N5         -3.7780    0.8230    0.5200 n         1 MOL     -0.398622
     54 C17        -2.9500   -0.1630   -0.1800 c3        1 MOL     -0.074893
     55 C18        -3.6410   -1.5510   -0.1800 c         1 MOL      0.621670
     56 O9         -4.4520   -1.8360    0.7230 o         1 MOL     -0.518166
     57 H25        -3.4840    1.1950    1.4120 hn        1 MOL      0.276179
     58 H26        -1.9260   -0.1890    0.2060 h1        1 MOL      0.081721
     59 H27        -2.8440    0.0820   -1.2360 h1        1 MOL      0.081721
     60 N6         -3.2760   -2.4070   -1.1090 n         1 MOL     -0.613886
     61 C19        -3.8130   -3.7650   -1.2700 c3        1 MOL      0.327064
     62 C20        -2.6940   -4.8150   -1.4090 c         1 MOL      0.428777
     63 O10        -1.8790   -4.6680   -2.2650 o         1 MOL     -0.485064
     64 C21        -4.6560   -3.7830   -2.5160 c3        1 MOL     -0.068994
     65 C22        -5.3610   -5.0720   -2.8270 c         1 MOL      0.706081
     66 O11        -5.3990   -5.4750   -3.9980 o         1 MOL     -0.666366
     67 O12        -6.0020   -5.6140   -1.9460 o         1 MOL     -0.666366
     68 H28        -2.6200   -2.0530   -1.8010 hn        1 MOL      0.301627
     69 H29        -4.4260   -4.0660   -0.4200 h1        1 MOL     -0.035692
     70 H30        -4.0040   -3.5900   -3.3670 hc        1 MOL     -0.007136
     71 H31        -5.3710   -2.9700   -2.3590 hc        1 MOL     -0.007136
     72 N7         -2.7580   -5.9950   -0.7350 n         1 MOL     -0.298034
     73 C23        -1.7600   -7.0910   -0.8530 c3        1 MOL     -0.215171
     74 C24        -0.4490   -6.7950    0.0070 c         1 MOL      0.462190
     75 O13         0.5310   -7.5670   -0.0490 o         1 MOL     -0.532301
     76 H32        -3.6290   -6.2740   -0.2950 hn        1 MOL      0.241405
     77 H33        -1.5950   -7.1370   -1.9290 h1        1 MOL      0.142180
     78 H34        -2.1840   -8.0500   -0.5560 h1        1 MOL      0.142180
     79 N8         -0.4390   -5.6600    0.7290 n         1 MOL     -0.161522
     80 C25         0.6150   -5.1160    1.4530 c3        1 MOL     -0.034727
     81 C26         0.8640   -3.6190    1.2120 c         1 MOL      0.618864
     82 O14        -0.0520   -2.8990    0.7210 o         1 MOL     -0.528966
     83 C27         0.5530   -5.4180    2.9630 c3        1 MOL      0.235215
     84 C28        -0.6120   -4.7040    3.5480 c3        1 MOL     -0.062928
     85 O15         0.4370   -6.7770    3.3680 oh        1 MOL     -0.573630
     86 H35        -1.2440   -5.0570    0.7030 hn        1 MOL      0.121932
     87 H36         1.4960   -5.6280    1.0760 h1        1 MOL      0.033628
     88 H37         1.4370   -4.9600    3.4010 h1        1 MOL     -0.018314
     89 H38         1.2210   -7.2110    3.0210 ho        1 MOL      0.380831
     90 H39        -0.4350   -4.6040    4.6150 hc        1 MOL      0.023485
     91 H40        -0.6830   -3.6740    3.2020 hc        1 MOL      0.023485
     92 H41        -1.5670   -5.2140    3.3880 hc        1 MOL      0.023485
     93 N9          2.0840   -3.0830    1.3800 n         1 MOL     -0.515288
     94 C29         2.4510   -1.6510    1.3680 c3        1 MOL     -0.139492
     95 C30         3.7410   -1.3930    0.5790 c         1 MOL      0.826845
     96 O16         3.7500   -0.4370   -0.1440 o         1 MOL     -0.566064
     97 C31         2.5780   -1.0370    2.8060 c3        1 MOL      0.072485
     98 C32         1.5470   -1.5990    3.8410 c3        1 MOL      0.173202
     99 C33         2.4710    0.4830    2.5980 c3        1 MOL     -0.241947
    100 C34         1.8390   -1.1350    5.2490 c3        1 MOL     -0.395132
    101 H42         2.8030   -3.7230    1.6900 hn        1 MOL      0.244708
    102 H43         1.6090   -1.1200    0.9320 h1        1 MOL      0.109950
    103 H44         3.5990   -1.2450    3.1530 hc        1 MOL     -0.002234
    104 H45         1.5410   -2.6860    3.9090 hc        1 MOL      0.012584
    105 H46         0.5160   -1.3270    3.6360 hc        1 MOL      0.012584
    106 H47         2.4360    1.0080    3.5540 hc        1 MOL      0.067535
    107 H48         3.2840    0.9370    2.0340 hc        1 MOL      0.067535
    108 H49         1.4960    0.6730    2.1520 hc        1 MOL      0.067535
    109 H50         1.3260   -0.1920    5.4190 hc        1 MOL      0.090200
    110 H51         1.3840   -1.8930    5.8910 hc        1 MOL      0.090200
    111 H52         2.9060   -1.1820    5.4910 hc        1 MOL      0.090200
    112 N10         4.7820   -2.1820    0.8310 n         1 MOL     -0.579818
    113 C35         6.0260   -2.0840   -0.0420 c3        1 MOL     -0.038174
    114 C36         7.3230   -2.3840    0.6740 c         1 MOL      0.671494
    115 O17         7.2560   -3.0660    1.7040 o         1 MOL     -0.564471
    116 C37         5.9760   -2.9700   -1.3350 c3        1 MOL      0.367843
    117 C38         5.5800   -4.4500   -1.0610 c3        1 MOL     -0.312165
    118 O18         5.1110   -2.3210   -2.2550 oh        1 MOL     -0.564194
    119 H53         4.7470   -2.9440    1.4910 hn        1 MOL      0.312682
    120 H54         6.1640   -1.1020   -0.5050 h1        1 MOL      0.065184
    121 H55         6.9910   -3.0180   -1.7260 h1        1 MOL     -0.047892
    122 H56         5.3930   -2.5420   -3.1490 ho        1 MOL      0.383645
    123 H57         4.7390   -4.4320   -0.3730 hc        1 MOL      0.083080
    124 H58         5.2470   -4.9360   -1.9770 hc        1 MOL      0.083080
    125 H59         6.3640   -5.0050   -0.5390 hc        1 MOL      0.083080
    126 N11         8.5110   -1.9490    0.3380 n         1 MOL     -0.578771
    127 C39         9.6970   -2.0560    1.2480 c3        1 MOL      0.004582
    128 C40        10.3220   -0.6930    1.5540 c         1 MOL      0.633775
    129 O19        10.8240   -0.5240    2.6570 o         1 MOL     -0.553612
    130 C41        10.7950   -3.0240    0.6130 c3        1 MOL      0.336487
    131 C42        12.0960   -3.1140    1.3890 c3        1 MOL     -0.523837
    132 O20        10.9890   -2.4800   -0.7090 oh        1 MOL     -0.597729
    133 H60         8.5610   -1.4190   -0.5230 hn        1 MOL      0.325656
    134 H61         9.4590   -2.4820    2.2160 h1        1 MOL      0.102623
    135 H62        10.3360   -4.0050    0.5300 h1        1 MOL      0.050559
    136 H63        11.9170   -2.5860   -0.9320 ho        1 MOL      0.314358
    137 H64        12.7240   -3.8250    0.8600 hc        1 MOL      0.147435
    138 H65        12.6170   -2.1730    1.5430 hc        1 MOL      0.147435
    139 H66        11.8920   -3.5080    2.3920 hc        1 MOL      0.147435
    140 N12        10.3500    0.2010    0.5520 n         1 MOL     -0.466288
    141 C43        10.7110    1.6500    0.5170 c3        1 MOL      0.088722
    142 C44         9.8130    2.4320   -0.5390 c         1 MOL      0.385254
    143 O21         9.5000    1.9710   -1.6480 o         1 MOL     -0.518720
    144 C45        12.1470    1.8640    0.1760 c3        1 MOL     -0.367073
    145 C46        12.5590    1.3430   -1.1980 c3        1 MOL      0.159170
    146 C47        14.0290    1.2430   -1.5170 c3        1 MOL     -0.008172
    147 C48        14.2640    0.8040   -3.0010 c3        1 MOL     -0.286559
    148 N13        13.5460   -0.3400   -3.4610 n4        1 MOL      0.026280
    149 H67        10.0560   -0.2070   -0.3140 hn        1 MOL      0.230662
    150 H68        10.4820    2.1140    1.4840 h1        1 MOL      0.105397
    151 H69        12.7640    1.4280    0.9590 hc        1 MOL      0.128012
    152 H70        12.3620    2.9280    0.1200 hc        1 MOL      0.128012
    153 H71        12.1220    1.9920   -1.9620 hc        1 MOL      0.038105
    154 H72        12.2070    0.3210   -1.3210 hc        1 MOL      0.038105
    155 H73        14.4350    0.4740   -0.8630 hc        1 MOL      0.028165
    156 H74        14.5690    2.1640   -1.3370 hc        1 MOL      0.028165
    157 H75        15.3260    0.6150   -3.1220 hx        1 MOL      0.155150
    158 H76        14.0500    1.6660   -3.6310 hx        1 MOL      0.155150
    159 H77        13.9250   -0.7100   -4.3300 hn        1 MOL      0.179126
    160 H78        13.8210   -1.1640   -2.9440 hn        1 MOL      0.179126
    161 H79        12.5430   -0.3090   -3.5400 hn        1 MOL      0.179126
    162 N14         9.5220    3.6810   -0.2440 n         1 MOL     -0.403087
    163 C49         8.7540    4.6110   -1.0650 c3        1 MOL      0.312630
    164 C50         7.1550    4.3710   -0.9390 c         1 MOL      0.369275
    165 O22         6.4570    4.6020   -1.9580 o         1 MOL     -0.534607
    166 C51         9.0710    6.0400   -0.6760 c3        1 MOL     -0.044055
    167 C52         8.2960    7.0950   -1.5170 c3        1 MOL     -0.163858
    168 C53         8.7490    8.5090   -1.2020 c         1 MOL      0.706223
    169 O23         8.3170    9.4910   -1.8490 o         1 MOL     -0.656387
    170 O24         9.5490    8.6110   -0.1980 o         1 MOL     -0.656387
    171 H80         9.7820    3.9960    0.6760 hn        1 MOL      0.235643
    172 H81         8.9560    4.5340   -2.1370 h1        1 MOL      0.025963
    173 H82        10.1340    6.1060   -0.8830 hc        1 MOL      0.008196
    174 H83         8.8590    6.2020    0.3820 hc        1 MOL      0.008196
    175 H84         7.2200    6.9950   -1.3690 hc        1 MOL      0.051496
    176 H85         8.5490    6.9980   -2.5730 hc        1 MOL      0.051496
    177 N15         6.5210    3.9560    0.1740 n         1 MOL     -0.359509
    178 C54         6.9410    4.2200    1.5690 c3        1 MOL      0.010400
    179 H86         7.9300    4.6760    1.5710 h1        1 MOL      0.043467
    180 H87         6.2280    4.8960    2.0420 h1        1 MOL      0.043467
    181 H88         6.9730    3.2810    2.1230 h1        1 MOL      0.043467
    182 H89         5.5170    3.8380    0.0990 hn        1 MOL      0.308079
    183 Ca1        -6.8130    4.2400    1.5280 Ca        1 MOL      1.715272
    184 O25        -7.0600    2.0730    3.1810 oh        1 MOL     -0.836221
    185 H90        -7.0950    1.1600    2.8810 ho        1 MOL      0.430251
    186 H91        -7.2290    2.0160    4.1160 ho        1 MOL      0.430251
@<TRIPOS>BOND
     1    1    2 1   
     2    1    4 1   
     3    1    5 1   
     4    1    6 1   
     5    2    3 2   
     6    2    7 1   
     7    7    8 1   
     8    7   15 1   
     9    8    9 1   
    10    8   11 1   
    11    8   16 1   
    12    9   10 2   
    13    9   19 1   
    14   11   12 1   
    15   11   17 1   
    16   11   18 1   
    17   12   13 1   
    18   12   14 1   
    19   19   20 1   
    20   19   28 1   
    21   20   21 1   
    22   20   23 1   
    23   20   29 1   
    24   21   22 2   
    25   21   41 1   
    26   23   24 1   
    27   23   30 1   
    28   23   31 1   
    29   24   25 1   
    30   24   32 1   
    31   24   33 1   
    32   25   26 1   
    33   25   34 1   
    34   25   35 1   
    35   26   27 1   
    36   26   36 1   
    37   26   37 1   
    38   27   38 1   
    39   27   39 1   
    40   27   40 1   
    41   41   42 1   
    42   41   49 1   
    43   42   43 1   
    44   42   45 1   
    45   42   50 1   
    46   43   44 2   
    47   43   53 1   
    48   45   46 1   
    49   45   51 1   
    50   45   52 1   
    51   46   47 1   
    52   46   48 1   
    53   53   54 1   
    54   53   57 1   
    55   54   55 1   
    56   54   58 1   
    57   54   59 1   
    58   55   56 2   
    59   55   60 1   
    60   60   61 1   
    61   60   68 1   
    62   61   62 1   
    63   61   64 1   
    64   61   69 1   
    65   62   63 2   
    66   62   72 1   
    67   64   65 1   
    68   64   70 1   
    69   64   71 1   
    70   65   66 1   
    71   65   67 1   
    72   72   73 1   
    73   72   76 1   
    74   73   74 1   
    75   73   77 1   
    76   73   78 1   
    77   74   75 2   
    78   74   79 1   
    79   79   80 1   
    80   79   86 1   
    81   80   81 1   
    82   80   83 1   
    83   80   87 1   
    84   81   82 2   
    85   81   93 1   
    86   83   84 1   
    87   83   85 1   
    88   83   88 1   
    89   84   90 1   
    90   84   91 1   
    91   84   92 1   
    92   85   89 1   
    93   93   94 1   
    94   93  101 1   
    95   94   95 1   
    96   94   97 1   
    97   94  102 1   
    98   95   96 2   
    99   95  112 1   
   100   97   98 1   
   101   97   99 1   
   102   97  103 1   
   103   98  100 1   
   104   98  104 1   
   105   98  105 1   
   106   99  106 1   
   107   99  107 1   
   108   99  108 1   
   109  100  109 1   
   110  100  110 1   
   111  100  111 1   
   112  112  113 1   
   113  112  119 1   
   114  113  114 1   
   115  113  116 1   
   116  113  120 1   
   117  114  115 2   
   118  114  126 1   
   119  116  117 1   
   120  116  118 1   
   121  116  121 1   
   122  117  123 1   
   123  117  124 1   
   124  117  125 1   
   125  118  122 1   
   126  126  127 1   
   127  126  133 1   
   128  127  128 1   
   129  127  130 1   
   130  127  134 1   
   131  128  129 2   
   132  128  140 1   
   133  130  131 1   
   134  130  132 1   
   135  130  135 1   
   136  131  137 1   
   137  131  138 1   
   138  131  139 1   
   139  132  136 1   
   140  140  141 1   
   141  140  149 1   
   142  141  142 1   
   143  141  144 1   
   144  141  150 1   
   145  142  143 2   
   146  142  162 1   
   147  144  145 1   
   148  144  151 1   
   149  144  152 1   
   150  145  146 1   
   151  145  153 1   
   152  145  154 1   
   153  146  147 1   
   154  146  155 1   
   155  146  156 1   
   156  147  148 1   
   157  147  157 1   
   158  147  158 1   
   159  148  159 1   
   160  148  160 1   
   161  148  161 1   
   162  162  163 1   
   163  162  171 1   
   164  163  164 1   
   165  163  166 1   
   166  163  172 1   
   167  164  165 2   
   168  164  177 1   
   169  166  167 1   
   170  166  173 1   
   171  166  174 1   
   172  167  168 1   
   173  167  175 1   
   174  167  176 1   
   175  168  169 1   
   176  168  170 1   
   177  177  178 1   
   178  177  182 1   
   179  178  179 1   
   180  178  180 1   
   181  178  181 1   
   182  184  185 1   
   183  184  186 1   
@<TRIPOS>SUBSTRUCTURE
     1 MOL         1 TEMP              0 ****  ****    0 ROOT
