@<TRIPOS>MOLECULE
MOL
  181   177     1     0     0
SMALL
resp


@<TRIPOS>ATOM
      1 C1          7.1990    2.3720    5.9730 c3        1 MOL     -0.212239
      2 C2          6.2760    1.5340    5.0700 c         1 MOL      0.648311
      3 O1          5.0920    1.5110    5.2940 o         1 MOL     -0.566524
      4 H1          6.8820    3.4150    5.9490 hc        1 MOL      0.047606
      5 H2          7.1430    2.0010    6.9960 hc        1 MOL      0.047606
      6 H3          8.2260    2.2970    5.6150 hc        1 MOL      0.047606
      7 N1          6.8010    0.7710    4.1190 n         1 MOL     -0.396468
      8 C3          8.1390    0.6360    3.6760 c3        1 MOL     -0.025202
      9 C4          8.4540   -0.8390    3.3580 c         1 MOL      0.492863
     10 O2          7.9620   -1.8250    3.9620 o         1 MOL     -0.457546
     11 C5          8.3010    1.6740    2.4990 c3        1 MOL     -0.066371
     12 C6          7.3770    1.4960    1.3130 c         1 MOL      0.660177
     13 O3          6.7410    2.4930    0.8490 o         1 MOL     -0.740224
     14 O4          7.1740    0.4030    0.7270 o         1 MOL     -0.740224
     15 H4          6.1020    0.1680    3.7030 hn        1 MOL      0.299847
     16 H5          8.7710    0.9430    4.5120 h1        1 MOL      0.082859
     17 H6          9.3380    1.5300    2.1740 hc        1 MOL      0.002355
     18 H7          8.2110    2.7160    2.8070 hc        1 MOL      0.002355
     19 N2          9.4210   -1.0540    2.4200 n         1 MOL     -0.541939
     20 C7          9.7720   -2.3230    1.7610 c3        1 MOL      0.277330
     21 C8          8.5170   -3.1510    1.2570 c         1 MOL      0.488530
     22 O5          8.5370   -4.3560    1.3160 o         1 MOL     -0.534974
     23 C9         10.8650   -3.1580    2.5530 c3        1 MOL     -0.384522
     24 H8          9.9640   -0.2710    2.0850 hn        1 MOL      0.315175
     25 H9         10.3020   -2.0500    0.8420 h1        1 MOL      0.001196
     26 H10        10.4620   -3.3850    3.5300 hc        1 MOL      0.098017
     27 H11        11.2260   -4.0150    1.9780 hc        1 MOL      0.098017
     28 H12        11.7830   -2.5680    2.6210 hc        1 MOL      0.098017
     29 N3          7.5440   -2.4480    0.6480 n         1 MOL     -0.312744
     30 C10         6.4450   -3.1150   -0.0860 c3        1 MOL      0.082458
     31 C11         6.2290   -2.6580   -1.5070 c         1 MOL      0.371338
     32 O6          6.4990   -1.4840   -1.7290 o         1 MOL     -0.478521
     33 C12         5.1760   -3.0690    0.7720 c3        1 MOL      0.055215
     34 C13         4.8030   -1.5960    1.0890 c         1 MOL      0.674043
     35 O7          4.7140   -1.3560    2.3180 o         1 MOL     -0.679200
     36 O8          4.4740   -0.7310    0.2220 o         1 MOL     -0.679200
     37 H13         7.5940   -1.4380    0.6460 hn        1 MOL      0.171432
     38 H14         6.7480   -4.1540   -0.2390 h1        1 MOL      0.003316
     39 H15         5.3320   -3.6880    1.6460 hc        1 MOL     -0.006735
     40 H16         4.3520   -3.5010    0.2070 hc        1 MOL     -0.006735
     41 N4          5.7060   -3.4770   -2.4600 n         1 MOL     -0.302576
     42 C14         5.4900   -3.0290   -3.8330 c3        1 MOL     -0.408899
     43 C15         4.2060   -2.2860   -4.1280 c         1 MOL      0.594662
     44 O9          3.8090   -2.0750   -5.2560 o         1 MOL     -0.573265
     45 H17         5.3480   -4.3860   -2.2360 hn        1 MOL      0.285817
     46 H18         5.4810   -3.8970   -4.4810 h1        1 MOL      0.178302
     47 H19         6.2880   -2.3750   -4.1930 h1        1 MOL      0.178302
     48 N5          3.4910   -1.8820   -3.0600 n         1 MOL     -0.232526
     49 C16         2.1660   -1.2800   -3.1830 c3        1 MOL     -0.100266
     50 C17         2.2060    0.1880   -2.6620 c         1 MOL      0.477679
     51 O10         3.1260    0.4580   -1.9660 o         1 MOL     -0.487862
     52 C18         1.1940   -2.1320   -2.4130 c3        1 MOL      0.083182
     53 C19         0.9050   -3.4780   -3.1570 c         1 MOL      0.551698
     54 N6          0.7360   -4.4930   -2.3750 n         1 MOL     -0.751789
     55 O11         0.7090   -3.5420   -4.3970 o         1 MOL     -0.513775
     56 H20         3.8320   -2.0150   -2.1200 hn        1 MOL      0.148390
     57 H21         1.8100   -1.2800   -4.2120 h1        1 MOL      0.106212
     58 H22         0.2430   -1.6190   -2.2740 hc        1 MOL     -0.032975
     59 H23         1.6210   -2.2980   -1.4250 hc        1 MOL     -0.032975
     60 H24         1.0180   -4.4330   -1.4050 hn        1 MOL      0.373519
     61 H25         0.4270   -5.3790   -2.7660 hn        1 MOL      0.373519
     62 N7          1.2790    1.0820   -3.0470 n         1 MOL     -0.520285
     63 C20         1.1040    2.3790   -2.4230 c3        1 MOL      0.176855
     64 C21         0.8090    3.5580   -3.3910 c         1 MOL      0.538224
     65 O12         0.9790    3.3930   -4.5960 o         1 MOL     -0.546772
     66 H26         0.6480    0.7240   -3.7470 hn        1 MOL      0.335731
     67 H27         1.9880    2.5530   -1.8080 h1        1 MOL      0.022444
     68 H28         0.3410    2.2640   -1.6490 h1        1 MOL      0.022444
     69 N8          0.3290    4.7490   -2.9710 n         1 MOL     -0.541458
     70 C22         0.0630    5.0090   -1.5600 c3        1 MOL      0.172638
     71 C23        -1.2840    4.3890   -1.1080 c         1 MOL      0.312440
     72 O13        -2.2460    4.4400   -1.9200 o         1 MOL     -0.450899
     73 C24        -0.0640    6.4890   -1.2250 c3        1 MOL      0.356697
     74 C25         0.4500    6.9030    0.1190 c3        1 MOL     -0.339451
     75 O14         0.7850    7.2870   -2.0430 oh        1 MOL     -0.657528
     76 H29         0.1670    5.5080   -3.6050 hn        1 MOL      0.344363
     77 H30         0.8250    4.5880   -0.9040 h1        1 MOL     -0.002328
     78 H31        -1.0920    6.8030   -1.4070 h1        1 MOL      0.052915
     79 H32         0.5250    8.1840   -1.8010 ho        1 MOL      0.387446
     80 H33         0.2790    7.9760    0.1080 hc        1 MOL      0.082406
     81 H34        -0.1200    6.4810    0.9540 hc        1 MOL      0.082406
     82 H35         1.5290    6.7590    0.1770 hc        1 MOL      0.082406
     83 N9         -1.3650    3.9490    0.1450 n         1 MOL     -0.385949
     84 C26        -2.5070    3.1920    0.7670 c3        1 MOL      0.197318
     85 C27        -3.3520    4.0620    1.6550 c         1 MOL      0.597635
     86 O15        -2.8000    4.7360    2.5420 o         1 MOL     -0.596901
     87 C28        -1.9570    2.0010    1.5420 c3        1 MOL      0.035012
     88 C29        -1.0330    1.1140    0.6800 c3        1 MOL     -0.069768
     89 C30        -3.0950    1.1750    2.2290 c3        1 MOL     -0.289053
     90 C31        -1.6130    0.4800   -0.6280 c3        1 MOL     -0.170788
     91 H36        -0.5060    3.9830    0.6790 hn        1 MOL      0.250580
     92 H37        -3.2220    2.7990    0.0390 h1        1 MOL      0.042044
     93 H38        -1.3580    2.4840    2.3120 hc        1 MOL      0.008585
     94 H39        -0.7610    0.2950    1.3520 hc        1 MOL      0.004522
     95 H40        -0.1470    1.7020    0.4530 hc        1 MOL      0.004522
     96 H41        -3.8230    0.8430    1.4880 hc        1 MOL      0.087624
     97 H42        -2.7770    0.2350    2.6820 hc        1 MOL      0.087624
     98 H43        -3.6810    1.7380    2.9540 hc        1 MOL      0.087624
     99 H44        -1.4830    1.0290   -1.5640 hc        1 MOL      0.067753
    100 H45        -1.1060   -0.4790   -0.7480 hc        1 MOL      0.067753
    101 H46        -2.6520    0.2180   -0.4410 hc        1 MOL      0.067753
    102 N10        -4.7160    4.0770    1.5710 n         1 MOL     -0.521162
    103 C32        -5.6650    3.5090    0.6080 c3        1 MOL      0.009143
    104 C33        -6.5200    2.4420    1.2940 c         1 MOL      0.800671
    105 O16        -6.4870    2.1560    2.4820 o         1 MOL     -0.585550
    106 C34        -6.5330    4.7100    0.0630 c3        1 MOL     -0.156711
    107 C35        -5.7710    6.0050   -0.2880 c         1 MOL      0.765090
    108 O17        -5.8220    6.9080    0.6000 o         1 MOL     -0.737570
    109 O18        -5.3920    6.2040   -1.4460 o         1 MOL     -0.737570
    110 H47        -5.2630    4.4830    2.3180 hn        1 MOL      0.305523
    111 H48        -5.1210    3.0690   -0.2380 h1        1 MOL      0.058557
    112 H49        -7.3040    4.9120    0.8070 hc        1 MOL      0.012202
    113 H50        -7.0890    4.4000   -0.8280 hc        1 MOL      0.012202
    114 N11        -7.2730    1.6750    0.4090 n         1 MOL     -0.816446
    115 C36        -7.8700    0.3670    0.7250 c3        1 MOL      0.243435
    116 C37        -8.2870   -0.3220   -0.6220 c         1 MOL      0.484576
    117 O19        -8.9700    0.3600   -1.3980 o         1 MOL     -0.552542
    118 C38        -9.0420    0.5110    1.7110 c3        1 MOL     -0.135594
    119 C39        -9.6490   -0.8370    2.0720 ca        1 MOL     -0.006541
    120 C40       -10.6710   -1.5130    1.3540 ca        1 MOL     -0.147942
    121 C41        -9.0960   -1.4340    3.2140 ca        1 MOL     -0.147942
    122 C42       -11.0800   -2.8150    1.7340 ca        1 MOL     -0.084459
    123 C43        -9.5210   -2.7440    3.5460 ca        1 MOL     -0.084459
    124 C44       -10.4610   -3.4680    2.8100 ca        1 MOL     -0.162776
    125 H51        -7.1860    1.8860   -0.5810 hn        1 MOL      0.369830
    126 H52        -7.1990   -0.2660    1.3020 h1        1 MOL      0.048115
    127 H53        -9.8060    1.1790    1.3110 hc        1 MOL      0.083631
    128 H54        -8.8030    1.1270    2.5900 hc        1 MOL      0.083631
    129 H55       -11.0700   -0.9980    0.4970 ha        1 MOL      0.125313
    130 H56        -8.3020   -0.9730    3.7930 ha        1 MOL      0.125313
    131 H57       -11.9090   -3.3170    1.2630 ha        1 MOL      0.088496
    132 H58        -9.0790   -3.1970    4.4280 ha        1 MOL      0.088496
    133 H59       -10.8930   -4.4200    3.0720 ha        1 MOL      0.117431
    134 N12        -7.9550   -1.5750   -0.9130 n         1 MOL     -0.221390
    135 C45        -7.2420   -2.4290   -0.0130 c3        1 MOL      0.335276
    136 C46        -5.7380   -2.2240    0.0860 c         1 MOL      0.384402
    137 O20        -5.2970   -1.0760   -0.1740 o         1 MOL     -0.550408
    138 C47        -7.6180   -3.8490   -0.5090 c3        1 MOL      0.029704
    139 C48        -8.9280   -3.6100   -1.2400 c3        1 MOL     -0.014589
    140 C49        -8.5900   -2.3250   -1.9150 c3        1 MOL      0.042100
    141 H60        -7.6330   -2.3070    1.0000 h1        1 MOL     -0.093459
    142 H61        -6.8710   -4.2690   -1.1840 hc        1 MOL     -0.007564
    143 H62        -7.7520   -4.6150    0.2510 hc        1 MOL     -0.007564
    144 H63        -9.2210   -4.3290   -2.0150 hc        1 MOL     -0.003583
    145 H64        -9.7420   -3.4430   -0.5360 hc        1 MOL     -0.003583
    146 H65        -8.0020   -2.4530   -2.8200 h1        1 MOL      0.042008
    147 H66        -9.5350   -1.8510   -2.1580 h1        1 MOL      0.042008
    148 N13        -4.9790   -3.2450    0.5280 n         1 MOL     -0.312727
    149 C50        -3.4640   -3.1480    0.6600 c3        1 MOL      0.108538
    150 C51        -2.9720   -4.2530    1.6300 c         1 MOL      0.396483
    151 O21        -1.9150   -4.8080    1.4710 o         1 MOL     -0.518890
    152 C52        -2.7520   -3.1590   -0.6840 c3        1 MOL     -0.109157
    153 C53        -2.6820   -4.4860   -1.4640 c3        1 MOL     -0.206998
    154 C54        -4.1250   -4.9620   -1.8740 c         1 MOL      0.759179
    155 O22        -4.5760   -6.0210   -1.3300 o         1 MOL     -0.724179
    156 O23        -4.7260   -4.3420   -2.7690 o         1 MOL     -0.724179
    157 H67        -5.3550   -4.1820    0.6260 hn        1 MOL      0.192247
    158 H68        -3.2500   -2.2360    1.2310 h1        1 MOL      0.088446
    159 H69        -1.7340   -2.8010   -0.5230 hc        1 MOL      0.073891
    160 H70        -3.1170   -2.3780   -1.3550 hc        1 MOL      0.073891
    161 H71        -2.2690   -5.1270   -0.6900 hc        1 MOL      0.027456
    162 H72        -2.1010   -4.4310   -2.3920 hc        1 MOL      0.027456
    163 N14        -3.6150   -4.5370    2.7790 n         1 MOL     -0.320432
    164 C55        -4.5900   -3.7230    3.5180 c3        1 MOL     -0.066174
    165 H73        -4.9440   -2.9120    2.8810 h1        1 MOL      0.052268
    166 H74        -5.4340   -4.3460    3.8150 h1        1 MOL      0.052268
    167 H75        -4.1170   -3.3060    4.4070 h1        1 MOL      0.052268
    168 H76        -3.1530   -5.3200    3.2430 hn        1 MOL      0.260399
    169 Ca1         5.5740    1.2220   -1.0390 Ca        1 MOL      1.743876
    170 O24         5.5560    0.8200   -3.6850 oh        1 MOL     -0.838777
    171 H77         4.9570    1.3790   -4.1760 ho        1 MOL      0.419521
    172 H78         5.8640    0.1760   -4.3180 ho        1 MOL      0.419521
    173 O25         4.9120    3.6410   -2.0550 oh        1 MOL     -0.838777
    174 H79         4.4660    4.1840   -1.4090 ho        1 MOL      0.419521
    175 H80         4.8770    4.1520   -2.8670 ho        1 MOL      0.419521
    176 O26         8.1060    1.5650   -1.9290 oh        1 MOL     -0.838777
    177 H81         8.7630    1.9340   -1.3390 ho        1 MOL      0.419521
    178 H82         8.5420    1.4950   -2.7780 ho        1 MOL      0.419521
    179 O27         3.3190    1.8660    0.4330 oh        1 MOL     -0.838777
    180 H83         3.2920    1.6210    1.3580 ho        1 MOL      0.419521
    181 H84         2.7620    1.2170    0.0000 ho        1 MOL      0.419521
@<TRIPOS>BOND
     1    1    2 1   
     2    1    4 1   
     3    1    5 1   
     4    1    6 1   
     5    2    3 2   
     6    2    7 1   
     7    7    8 1   
     8    7   15 1   
     9    8    9 1   
    10    8   11 1   
    11    8   16 1   
    12    9   10 2   
    13    9   19 1   
    14   11   12 1   
    15   11   17 1   
    16   11   18 1   
    17   12   13 1   
    18   12   14 1   
    19   19   20 1   
    20   19   24 1   
    21   20   21 1   
    22   20   23 1   
    23   20   25 1   
    24   21   22 2   
    25   21   29 1   
    26   23   26 1   
    27   23   27 1   
    28   23   28 1   
    29   29   30 1   
    30   29   37 1   
    31   30   31 1   
    32   30   33 1   
    33   30   38 1   
    34   31   32 2   
    35   31   41 1   
    36   33   34 1   
    37   33   39 1   
    38   33   40 1   
    39   34   35 1   
    40   34   36 1   
    41   41   42 1   
    42   41   45 1   
    43   42   43 1   
    44   42   46 1   
    45   42   47 1   
    46   43   44 2   
    47   43   48 1   
    48   48   49 1   
    49   48   56 1   
    50   49   50 1   
    51   49   52 1   
    52   49   57 1   
    53   50   51 2   
    54   50   62 1   
    55   52   53 1   
    56   52   58 1   
    57   52   59 1   
    58   53   54 1   
    59   53   55 2   
    60   54   60 1   
    61   54   61 1   
    62   62   63 1   
    63   62   66 1   
    64   63   64 1   
    65   63   67 1   
    66   63   68 1   
    67   64   65 2   
    68   64   69 1   
    69   69   70 1   
    70   69   76 1   
    71   70   71 1   
    72   70   73 1   
    73   70   77 1   
    74   71   72 2   
    75   71   83 1   
    76   73   74 1   
    77   73   75 1   
    78   73   78 1   
    79   74   80 1   
    80   74   81 1   
    81   74   82 1   
    82   75   79 1   
    83   83   84 1   
    84   83   91 1   
    85   84   85 1   
    86   84   87 1   
    87   84   92 1   
    88   85   86 2   
    89   85  102 1   
    90   87   88 1   
    91   87   89 1   
    92   87   93 1   
    93   88   90 1   
    94   88   94 1   
    95   88   95 1   
    96   89   96 1   
    97   89   97 1   
    98   89   98 1   
    99   90   99 1   
   100   90  100 1   
   101   90  101 1   
   102  102  103 1   
   103  102  110 1   
   104  103  104 1   
   105  103  106 1   
   106  103  111 1   
   107  104  105 2   
   108  104  114 1   
   109  106  107 1   
   110  106  112 1   
   111  106  113 1   
   112  107  108 1   
   113  107  109 1   
   114  114  115 1   
   115  114  125 1   
   116  115  116 1   
   117  115  118 1   
   118  115  126 1   
   119  116  117 2   
   120  116  134 1   
   121  118  119 1   
   122  118  127 1   
   123  118  128 1   
   124  119  120 ar  
   125  119  121 ar  
   126  120  122 ar  
   127  120  129 1   
   128  121  123 ar  
   129  121  130 1   
   130  122  124 ar  
   131  122  131 1   
   132  123  124 ar  
   133  123  132 1   
   134  124  133 1   
   135  134  135 1   
   136  134  140 1   
   137  135  136 1   
   138  135  138 1   
   139  135  141 1   
   140  136  137 2   
   141  136  148 1   
   142  138  139 1   
   143  138  142 1   
   144  138  143 1   
   145  139  140 1   
   146  139  144 1   
   147  139  145 1   
   148  140  146 1   
   149  140  147 1   
   150  148  149 1   
   151  148  157 1   
   152  149  150 1   
   153  149  152 1   
   154  149  158 1   
   155  150  151 2   
   156  150  163 1   
   157  152  153 1   
   158  152  159 1   
   159  152  160 1   
   160  153  154 1   
   161  153  161 1   
   162  153  162 1   
   163  154  155 1   
   164  154  156 1   
   165  163  164 1   
   166  163  168 1   
   167  164  165 1   
   168  164  166 1   
   169  164  167 1   
   170  170  171 1   
   171  170  172 1   
   172  173  174 1   
   173  173  175 1   
   174  176  177 1   
   175  176  178 1   
   176  179  180 1   
   177  179  181 1   
@<TRIPOS>SUBSTRUCTURE
     1 MOL         1 TEMP              0 ****  ****    0 ROOT
