@<TRIPOS>MOLECULE
MOL
  182   178     1     0     0
SMALL
resp


@<TRIPOS>ATOM
      1 C1         -2.4410   -3.1710    5.9550 c3        1 MOL     -0.252739
      2 C2         -2.1060   -2.6130    4.5270 c         1 MOL      0.693520
      3 O1         -2.9330   -2.3250    3.6770 o         1 MOL     -0.549522
      4 H1         -1.6020   -3.7660    6.3180 hc        1 MOL      0.072145
      5 H2         -2.6180   -2.3410    6.6380 hc        1 MOL      0.072145
      6 H3         -3.3320   -3.7950    5.9020 hc        1 MOL      0.072145
      7 N1         -0.7670   -2.6920    4.1690 n         1 MOL     -0.616670
      8 C3         -0.1690   -2.5850    2.8630 c3        1 MOL      0.044415
      9 C4          0.0530   -4.0280    2.2840 c         1 MOL      0.630975
     10 O2          0.8150   -4.7790    2.7810 o         1 MOL     -0.541078
     11 C5          1.0700   -1.7610    3.0370 c3        1 MOL     -0.074216
     12 C6          1.8920   -1.4870    1.7210 c         1 MOL      0.654804
     13 O3          2.7510   -0.5960    1.5510 o         1 MOL     -0.730934
     14 O4          1.6780   -2.1760    0.6730 o         1 MOL     -0.730934
     15 H4         -0.1260   -2.8100    4.9470 hn        1 MOL      0.311458
     16 H5         -0.8100   -2.0480    2.1710 h1        1 MOL      0.040373
     17 H6          1.7220   -2.2310    3.7830 hc        1 MOL      0.051729
     18 H7          0.6630   -0.8260    3.4280 hc        1 MOL      0.051729
     19 N2         -0.5700   -4.3310    1.1510 n         1 MOL     -0.383490
     20 C7         -0.5300   -5.6920    0.5290 c3        1 MOL     -0.126763
     21 C8          0.8250   -6.1310   -0.0510 c         1 MOL      0.482424
     22 O5          1.1440   -7.3150   -0.1290 o         1 MOL     -0.588198
     23 C9         -1.6280   -5.7630   -0.5600 c3        1 MOL      0.086537
     24 C10        -1.8710   -7.1920   -1.1550 c3        1 MOL     -0.044152
     25 C11        -3.1260   -7.2220   -2.0520 c3        1 MOL     -0.029963
     26 C12        -3.2020   -8.6230   -2.6710 c3        1 MOL      0.060486
     27 N3         -4.3240   -8.8070   -3.5910 n4        1 MOL     -0.205924
     28 H8         -1.1990   -3.6600    0.7240 hn        1 MOL      0.235404
     29 H9         -0.7620   -6.4370    1.2830 h1        1 MOL      0.123781
     30 H10        -1.3450   -5.1690   -1.4230 hc        1 MOL      0.007719
     31 H11        -2.5920   -5.4210   -0.1700 hc        1 MOL      0.007719
     32 H12        -2.0950   -7.8040   -0.2860 hc        1 MOL      0.037034
     33 H13        -0.9730   -7.4800   -1.6950 hc        1 MOL      0.037034
     34 H14        -3.0680   -6.4340   -2.8160 hc        1 MOL      0.029113
     35 H15        -3.9840   -7.0030   -1.4200 hc        1 MOL      0.029113
     36 H16        -3.2580   -9.4510   -1.9580 hx        1 MOL      0.070723
     37 H17        -2.2850   -8.8010   -3.2320 hx        1 MOL      0.070723
     38 H18        -4.5800   -9.7450   -3.8730 hn        1 MOL      0.250485
     39 H19        -5.1970   -8.5050   -3.2090 hn        1 MOL      0.250485
     40 H20        -4.1930   -8.2070   -4.3940 hn        1 MOL      0.250485
     41 N4          1.6290   -5.2000   -0.4650 n         1 MOL     -0.126508
     42 C13         2.8430   -5.3250   -1.2830 c3        1 MOL     -0.062007
     43 C14         4.0180   -4.9160   -0.3780 c         1 MOL      0.428473
     44 O6          5.1500   -4.9740   -0.8170 o         1 MOL     -0.500347
     45 C15         2.6640   -4.3560   -2.5090 c3        1 MOL     -0.237088
     46 C16         2.5280   -2.8750   -2.1810 c         1 MOL      0.901845
     47 O7          3.5550   -2.2540   -1.8720 o         1 MOL     -0.765747
     48 O8          1.4900   -2.3110   -2.4010 o         1 MOL     -0.765747
     49 H21         1.3480   -4.2360   -0.2970 hn        1 MOL      0.116927
     50 H22         2.8780   -6.3540   -1.6310 h1        1 MOL      0.131596
     51 H23         1.8480   -4.6180   -3.1970 hc        1 MOL      0.059824
     52 H24         3.5750   -4.4710   -3.1010 hc        1 MOL      0.059824
     53 N5          3.8180   -4.3590    0.8300 n         1 MOL     -0.208858
     54 C17         4.8840   -3.9090    1.6670 c3        1 MOL     -0.133531
     55 C18         5.9080   -2.8040    1.1920 c         1 MOL      0.560086
     56 O9          6.9390   -2.7480    1.8510 o         1 MOL     -0.564201
     57 H25         2.8690   -4.1990    1.1360 hn        1 MOL      0.197300
     58 H26         5.4920   -4.7650    1.9760 h1        1 MOL      0.093875
     59 H27         4.4390   -3.5070    2.5750 h1        1 MOL      0.093875
     60 N6          5.7180   -2.0680    0.0560 n         1 MOL     -0.250646
     61 C19         6.6270   -1.1330   -0.5300 c3        1 MOL      0.116212
     62 C20         6.0710    0.1980   -0.9110 c         1 MOL      0.388121
     63 O10         4.8620    0.4460   -1.0560 o         1 MOL     -0.462278
     64 C21         7.3570   -1.7910   -1.7420 c3        1 MOL     -0.124773
     65 C22         6.9830   -1.2750   -3.0930 c         1 MOL      0.626410
     66 N7          5.7830   -1.5450   -3.5980 n         1 MOL     -0.776402
     67 O11         7.7650   -0.5340   -3.6120 o         1 MOL     -0.585845
     68 H28         4.8760   -2.3230   -0.4360 hn        1 MOL      0.131777
     69 H29         7.4520   -1.0330    0.1770 h1        1 MOL      0.051708
     70 H30         7.1810   -2.8560   -1.6290 hc        1 MOL      0.052582
     71 H31         8.4230   -1.5730   -1.6390 hc        1 MOL      0.052582
     72 H32         5.0990   -2.0110   -3.0210 hn        1 MOL      0.352463
     73 H33         5.3720   -1.0410   -4.3700 hn        1 MOL      0.352463
     74 N8          6.8830    1.2490   -1.0650 n         1 MOL     -0.333447
     75 C23         6.4130    2.5850   -1.4540 c3        1 MOL     -0.072639
     76 C24         5.4920    3.2940   -0.4680 c         1 MOL      0.686382
     77 O12         5.6840    3.1090    0.7170 o         1 MOL     -0.556288
     78 H34         7.8810    1.0730   -1.0140 hn        1 MOL      0.292827
     79 H35         5.9250    2.6460   -2.4300 h1        1 MOL      0.068312
     80 H36         7.3130    3.1920   -1.4800 h1        1 MOL      0.068312
     81 N9          4.4140    3.8770   -0.9160 n         1 MOL     -0.850352
     82 C25         3.3740    4.3720    0.0110 c3        1 MOL      0.521388
     83 C26         2.5670    3.2170    0.5720 c         1 MOL      0.681901
     84 O13         2.5920    2.0590    0.1180 o         1 MOL     -0.568277
     85 C27         2.4990    5.3170   -0.8310 c3        1 MOL     -0.394922
     86 C28         3.0910    6.7520   -0.9260 ca        1 MOL      0.223652
     87 C29         3.1530    7.6030    0.1690 ca        1 MOL     -0.257238
     88 C30         3.5410    7.1980   -2.1830 ca        1 MOL     -0.257238
     89 C31         3.6190    8.9500   -0.0080 ca        1 MOL     -0.185774
     90 C32         3.8810    8.5910   -2.4120 ca        1 MOL     -0.185774
     91 C33         3.8510    9.4420   -1.3380 ca        1 MOL      0.288509
     92 O14         4.2950   10.7330   -1.5890 oh        1 MOL     -0.513806
     93 H37         4.2600    3.9760   -1.9110 hn        1 MOL      0.385607
     94 H38         3.7440    4.9720    0.8420 h1        1 MOL     -0.001482
     95 H39         1.5440    5.4140   -0.3160 hc        1 MOL      0.104830
     96 H40         2.3000    4.7690   -1.7540 hc        1 MOL      0.104830
     97 H41         3.0010    7.2900    1.1910 ha        1 MOL      0.144336
     98 H42         3.4020    6.5130   -3.0000 ha        1 MOL      0.144336
     99 H43         3.7030    9.5800    0.8610 ha        1 MOL      0.151149
    100 H44         4.1180    8.9810   -3.3950 ha        1 MOL      0.151149
    101 H45         4.6560   10.9180   -2.4470 ho        1 MOL      0.379870
    102 N10         1.9700    3.5540    1.7330 n         1 MOL     -0.866088
    103 C34         1.1270    2.7130    2.6560 c3        1 MOL      0.753218
    104 C35        -0.0270    1.8190    2.0940 c         1 MOL      0.085222
    105 O15         0.1500    1.1740    1.0560 o         1 MOL     -0.408584
    106 C36         1.9630    2.0040    3.7350 c3        1 MOL      0.224386
    107 C37         1.1080    1.7400    4.9780 c3        1 MOL      0.009325
    108 C38         3.2140    2.8320    4.1300 c3        1 MOL     -0.108850
    109 C39         1.7920    1.2060    6.2590 c3        1 MOL     -0.334459
    110 H46         1.9400    4.5470    1.8810 hn        1 MOL      0.326880
    111 H47         0.5540    3.4400    3.2340 h1        1 MOL     -0.153870
    112 H48         2.2580    1.0650    3.2610 hc        1 MOL     -0.043214
    113 H49         0.2260    1.1170    4.8800 hc        1 MOL     -0.032930
    114 H50         0.6440    2.6800    5.2550 hc        1 MOL     -0.032930
    115 H51         3.7880    2.2790    4.8640 hc        1 MOL      0.014136
    116 H52         3.8480    3.0360    3.2640 hc        1 MOL      0.014136
    117 H53         2.8880    3.7690    4.5930 hc        1 MOL      0.014136
    118 H54         2.1650    0.2420    5.9390 hc        1 MOL      0.095077
    119 H55         2.6460    1.8320    6.5070 hc        1 MOL      0.095077
    120 H56         1.1390    1.2940    7.1350 hc        1 MOL      0.095077
    121 N11        -1.1530    1.6550    2.8090 n         1 MOL     -0.376103
    122 C40        -2.2630    0.8030    2.5650 c3        1 MOL      0.008433
    123 C41        -3.0750    1.0760    1.3130 c         1 MOL      0.388697
    124 O16        -4.0480    0.3660    1.0510 o         1 MOL     -0.535334
    125 C42        -3.2470    0.9140    3.7430 c3        1 MOL      0.184035
    126 O17        -2.6170    0.5440    4.9430 oh        1 MOL     -0.569274
    127 H57        -1.2030    2.2280    3.6350 hn        1 MOL      0.243438
    128 H58        -1.8800   -0.2200    2.5390 h1        1 MOL      0.178815
    129 H59        -4.0740    0.2370    3.5620 h1        1 MOL      0.053551
    130 H60        -3.6060    1.9460    3.7960 h1        1 MOL      0.053551
    131 H61        -2.2780    1.3070    5.4010 ho        1 MOL      0.381852
    132 N12        -2.8900    2.0910    0.4770 n         1 MOL     -0.448585
    133 C43        -3.7280    2.3430   -0.7160 c3        1 MOL      0.249642
    134 C44        -3.3280    1.4220   -1.8520 c         1 MOL      0.685058
    135 O18        -2.1600    1.5190   -2.2570 o         1 MOL     -0.662062
    136 C45        -3.6310    3.8620   -1.0280 c3        1 MOL     -0.365691
    137 H62        -2.1010    2.7070    0.6270 hn        1 MOL      0.303337
    138 H63        -4.7670    2.1390   -0.4600 h1        1 MOL      0.092677
    139 H64        -3.1030    4.4060   -0.2450 hc        1 MOL      0.095610
    140 H65        -3.1910    4.0100   -2.0150 hc        1 MOL      0.095610
    141 H66        -4.7220    3.9680   -1.0810 hc        1 MOL      0.095610
    142 N13        -4.2250    0.6900   -2.4910 n         1 MOL     -0.694890
    143 C46        -5.6100    0.4340   -2.0650 c3        1 MOL      0.292473
    144 C47        -6.5560    1.6060   -2.2990 c         1 MOL      0.790145
    145 O19        -6.3740    2.2950   -3.2630 o         1 MOL     -0.599801
    146 C48        -6.0200   -0.8030   -2.8730 c3        1 MOL     -0.462733
    147 H67        -3.9280    0.1220   -3.2710 hn        1 MOL      0.359195
    148 H68        -5.5930    0.2520   -0.9870 h1        1 MOL      0.038975
    149 H69        -7.0760   -1.0730   -2.7540 hc        1 MOL      0.125471
    150 H70        -5.8760   -0.4890   -3.9100 hc        1 MOL      0.125471
    151 H71        -5.3310   -1.6150   -2.6260 hc        1 MOL      0.125471
    152 N14        -7.6580    1.9080   -1.4890 n         1 MOL     -0.496081
    153 C49        -7.9860    1.3540   -0.1650 c3        1 MOL     -0.571134
    154 C50        -8.5630    2.2740    0.9460 c         1 MOL      0.743165
    155 O20        -8.4510    1.9570    2.1170 o         1 MOL     -0.585173
    156 C51        -8.8610    0.2000   -0.4100 c3        1 MOL      0.332816
    157 C52       -10.2480    0.5320   -0.9180 c3        1 MOL     -0.221644
    158 C53       -10.3010    1.2080   -2.3360 c         1 MOL      0.633328
    159 O21       -10.4210    2.5160   -2.2930 o         1 MOL     -0.633507
    160 O22       -10.0840    0.6790   -3.4590 o         1 MOL     -0.633507
    161 H72        -8.3160    2.5750   -1.8670 hn        1 MOL      0.280499
    162 H73        -7.0640    0.9690    0.2900 h1        1 MOL      0.139830
    163 H74        -9.0420   -0.3480    0.5140 hc        1 MOL     -0.029460
    164 H75        -8.4730   -0.5520   -1.0980 hc        1 MOL     -0.029460
    165 H76       -10.8180    1.1080   -0.1900 hc        1 MOL      0.026077
    166 H77       -10.6940   -0.4610   -0.9990 hc        1 MOL      0.026077
    167 N15        -9.1470    3.3670    0.5260 n         1 MOL     -0.271566
    168 C54        -9.5400    4.4540    1.4280 c3        1 MOL     -0.264184
    169 H78       -10.1210    5.1920    0.8740 h1        1 MOL      0.111303
    170 H79       -10.1440    4.0520    2.2410 h1        1 MOL      0.111303
    171 H80        -8.6480    4.9270    1.8370 h1        1 MOL      0.111303
    172 H81        -9.1670    3.5130   -0.4670 hn        1 MOL      0.252464
    173 Ca1         2.1820   -0.1930   -0.9540 Ca        1 MOL      1.760756
    174 O23         2.6470    0.1830   -3.5770 oh        1 MOL     -0.848920
    175 H82         2.8710    0.9500   -4.0910 ho        1 MOL      0.413488
    176 H83         2.4520   -0.4930   -4.2220 ho        1 MOL      0.413488
    177 O24         0.7240    2.1620   -2.5330 oh        1 MOL     -0.848920
    178 H84         0.6510    1.8940   -3.4480 ho        1 MOL      0.413488
    179 H85        -0.1800    2.3030   -2.2610 ho        1 MOL      0.413488
    180 O25        -0.5950   -0.5910   -1.3510 oh        1 MOL     -0.848920
    181 H86        -1.1760   -0.1450   -1.9590 ho        1 MOL      0.413488
    182 H87        -1.1570   -1.2400   -0.9140 ho        1 MOL      0.413488
@<TRIPOS>BOND
     1    1    2 1   
     2    1    4 1   
     3    1    5 1   
     4    1    6 1   
     5    2    3 2   
     6    2    7 1   
     7    7    8 1   
     8    7   15 1   
     9    8    9 1   
    10    8   11 1   
    11    8   16 1   
    12    9   10 2   
    13    9   19 1   
    14   11   12 1   
    15   11   17 1   
    16   11   18 1   
    17   12   13 1   
    18   12   14 1   
    19   19   20 1   
    20   19   28 1   
    21   20   21 1   
    22   20   23 1   
    23   20   29 1   
    24   21   22 2   
    25   21   41 1   
    26   23   24 1   
    27   23   30 1   
    28   23   31 1   
    29   24   25 1   
    30   24   32 1   
    31   24   33 1   
    32   25   26 1   
    33   25   34 1   
    34   25   35 1   
    35   26   27 1   
    36   26   36 1   
    37   26   37 1   
    38   27   38 1   
    39   27   39 1   
    40   27   40 1   
    41   41   42 1   
    42   41   49 1   
    43   42   43 1   
    44   42   45 1   
    45   42   50 1   
    46   43   44 2   
    47   43   53 1   
    48   45   46 1   
    49   45   51 1   
    50   45   52 1   
    51   46   47 1   
    52   46   48 1   
    53   53   54 1   
    54   53   57 1   
    55   54   55 1   
    56   54   58 1   
    57   54   59 1   
    58   55   56 2   
    59   55   60 1   
    60   60   61 1   
    61   60   68 1   
    62   61   62 1   
    63   61   64 1   
    64   61   69 1   
    65   62   63 2   
    66   62   74 1   
    67   64   65 1   
    68   64   70 1   
    69   64   71 1   
    70   65   66 1   
    71   65   67 2   
    72   66   72 1   
    73   66   73 1   
    74   74   75 1   
    75   74   78 1   
    76   75   76 1   
    77   75   79 1   
    78   75   80 1   
    79   76   77 2   
    80   76   81 1   
    81   81   82 1   
    82   81   93 1   
    83   82   83 1   
    84   82   85 1   
    85   82   94 1   
    86   83   84 2   
    87   83  102 1   
    88   85   86 1   
    89   85   95 1   
    90   85   96 1   
    91   86   87 ar  
    92   86   88 ar  
    93   87   89 ar  
    94   87   97 1   
    95   88   90 ar  
    96   88   98 1   
    97   89   91 ar  
    98   89   99 1   
    99   90   91 ar  
   100   90  100 1   
   101   91   92 1   
   102   92  101 1   
   103  102  103 1   
   104  102  110 1   
   105  103  104 1   
   106  103  106 1   
   107  103  111 1   
   108  104  105 2   
   109  104  121 1   
   110  106  107 1   
   111  106  108 1   
   112  106  112 1   
   113  107  109 1   
   114  107  113 1   
   115  107  114 1   
   116  108  115 1   
   117  108  116 1   
   118  108  117 1   
   119  109  118 1   
   120  109  119 1   
   121  109  120 1   
   122  121  122 1   
   123  121  127 1   
   124  122  123 1   
   125  122  125 1   
   126  122  128 1   
   127  123  124 2   
   128  123  132 1   
   129  125  126 1   
   130  125  129 1   
   131  125  130 1   
   132  126  131 1   
   133  132  133 1   
   134  132  137 1   
   135  133  134 1   
   136  133  136 1   
   137  133  138 1   
   138  134  135 2   
   139  134  142 1   
   140  136  139 1   
   141  136  140 1   
   142  136  141 1   
   143  142  143 1   
   144  142  147 1   
   145  143  144 1   
   146  143  146 1   
   147  143  148 1   
   148  144  145 2   
   149  144  152 1   
   150  146  149 1   
   151  146  150 1   
   152  146  151 1   
   153  152  153 1   
   154  152  161 1   
   155  153  154 1   
   156  153  156 1   
   157  153  162 1   
   158  154  155 2   
   159  154  167 1   
   160  156  157 1   
   161  156  163 1   
   162  156  164 1   
   163  157  158 1   
   164  157  165 1   
   165  157  166 1   
   166  158  159 1   
   167  158  160 1   
   168  167  168 1   
   169  167  172 1   
   170  168  169 1   
   171  168  170 1   
   172  168  171 1   
   173  174  175 1   
   174  174  176 1   
   175  177  178 1   
   176  177  179 1   
   177  180  181 1   
   178  180  182 1   
@<TRIPOS>SUBSTRUCTURE
     1 MOL         1 TEMP              0 ****  ****    0 ROOT
