@<TRIPOS>MOLECULE
MOL
  201   193     1     0     0
SMALL
resp


@<TRIPOS>ATOM
      1 C1         -2.8130    8.2160    5.4540 c3        1 MOL     -0.398196
      2 C2         -3.1850    8.3690    3.9650 c         1 MOL      0.643599
      3 O1         -4.2840    8.8880    3.6450 o         1 MOL     -0.592986
      4 H1         -2.0990    7.4000    5.5670 hc        1 MOL      0.107864
      5 H2         -2.3670    9.1420    5.8140 hc        1 MOL      0.107864
      6 H3         -3.7100    7.9950    6.0320 hc        1 MOL      0.107864
      7 N1         -2.3460    7.9710    3.0190 n         1 MOL     -0.525414
      8 C3         -2.7070    7.6740    1.6250 c3        1 MOL      0.391173
      9 C4         -2.8080    6.1290    1.4170 c         1 MOL      0.337008
     10 O2         -2.1280    5.2960    2.0500 o         1 MOL     -0.504663
     11 C5         -1.8010    8.3410    0.5630 c3        1 MOL     -0.264517
     12 C6         -0.3430    8.0200    0.5830 c         1 MOL      0.709469
     13 O3          0.3870    8.7910    1.2390 o         1 MOL     -0.655083
     14 O4          0.1370    6.9360    0.0950 o         1 MOL     -0.655083
     15 H4         -1.5260    7.4450    3.2940 hn        1 MOL      0.313614
     16 H5         -3.7410    8.0340    1.5150 h1        1 MOL     -0.036945
     17 H6         -1.9810    9.4160    0.6830 hc        1 MOL      0.038621
     18 H7         -2.1880    8.0410   -0.4100 hc        1 MOL      0.038621
     19 N2         -3.6570    5.7300    0.4650 n         1 MOL     -0.457459
     20 C7         -3.6440    4.3070   -0.0080 c3        1 MOL      0.028580
     21 C8         -2.3140    3.9920   -0.7600 c         1 MOL      0.494363
     22 O5         -1.9010    4.5960   -1.7080 o         1 MOL     -0.526891
     23 C9         -4.9560    4.0670   -0.7600 c3        1 MOL     -0.267027
     24 C10        -6.2360    4.3210    0.1090 c3        1 MOL      0.124505
     25 C11        -7.4690    4.1910   -0.7470 c3        1 MOL     -0.059072
     26 C12        -8.6080    4.6130    0.1100 c3        1 MOL      0.128051
     27 N3         -9.1730    3.5700    1.0530 n4        1 MOL     -0.539007
     28 H8         -4.1440    6.4490   -0.0550 hn        1 MOL      0.327634
     29 H9         -3.6750    3.5740    0.8000 h1        1 MOL      0.082521
     30 H10        -4.9960    3.0250   -1.0660 hc        1 MOL      0.127857
     31 H11        -4.9250    4.7170   -1.6500 hc        1 MOL      0.127857
     32 H12        -6.2200    5.3470    0.4830 hc        1 MOL     -0.015485
     33 H13        -6.2950    3.6320    0.9560 hc        1 MOL     -0.015485
     34 H14        -7.6070    3.1570   -1.0780 hc        1 MOL      0.037526
     35 H15        -7.2730    4.8170   -1.6120 hc        1 MOL      0.037526
     36 H16        -9.4580    4.8580   -0.5360 hx        1 MOL      0.065003
     37 H17        -8.3890    5.5170    0.6680 hx        1 MOL      0.065003
     38 H18       -10.1820    3.6890    0.9960 hn        1 MOL      0.375708
     39 H19        -8.8860    2.6690    0.6930 hn        1 MOL      0.375708
     40 H20        -8.7480    3.5540    1.9680 hn        1 MOL      0.375708
     41 N4         -1.6780    2.9540   -0.3660 n         1 MOL     -0.291862
     42 C13        -0.4030    2.4400   -0.9170 c3        1 MOL      0.246735
     43 C14        -0.2600    0.9050   -0.7540 c         1 MOL      0.306827
     44 O6          0.4960    0.4350    0.0980 o         1 MOL     -0.450638
     45 C15         0.6660    3.2890   -0.3060 c3        1 MOL     -0.084827
     46 C16         2.0990    2.9320   -0.8390 c         1 MOL      0.797921
     47 O7          3.1250    3.4630   -0.2790 o         1 MOL     -0.788918
     48 O8          2.3340    2.2730   -1.8870 o         1 MOL     -0.788918
     49 H21        -2.0100    2.5200    0.4870 hn        1 MOL      0.248671
     50 H22        -0.3170    2.5760   -1.9970 h1        1 MOL     -0.021558
     51 H23         0.6690    3.0540    0.7580 hc        1 MOL      0.054184
     52 H24         0.5420    4.3470   -0.5350 hc        1 MOL      0.054184
     53 N5         -1.1630    0.0510   -1.3630 n         1 MOL     -0.215829
     54 C17        -2.2670    0.4510   -2.2430 c3        1 MOL     -0.401175
     55 C18        -3.6880    0.1190   -1.8630 c         1 MOL      0.552855
     56 O9         -4.1070    0.3650   -0.7490 o         1 MOL     -0.515114
     57 H25        -0.9040   -0.9250   -1.3320 hn        1 MOL      0.189953
     58 H26        -2.0830   -0.0990   -3.1680 h1        1 MOL      0.138965
     59 H27        -2.1630    1.5070   -2.5300 h1        1 MOL      0.138965
     60 N6         -4.4990   -0.4540   -2.8280 n         1 MOL     -0.463480
     61 C19        -5.8500   -0.9060   -2.5160 c3        1 MOL      0.021847
     62 C20        -6.1740   -2.3540   -2.8260 c         1 MOL      0.424192
     63 O10        -7.3330   -2.7800   -3.0240 o         1 MOL     -0.504026
     64 C21        -6.9290    0.0340   -3.1140 c3        1 MOL     -0.102729
     65 C22        -6.7660    0.2900   -4.6110 c         1 MOL      0.678575
     66 O11        -6.6190   -0.6350   -5.4250 o         1 MOL     -0.683219
     67 O12        -6.6400    1.5020   -4.9660 o         1 MOL     -0.683219
     68 H28        -4.1000   -0.6120   -3.7470 hn        1 MOL      0.321405
     69 H29        -5.9850   -0.8270   -1.4420 h1        1 MOL      0.106576
     70 H30        -6.8500    0.9700   -2.5590 hc        1 MOL      0.005121
     71 H31        -7.9520   -0.2490   -2.8810 hc        1 MOL      0.005121
     72 N7         -5.1620   -3.2140   -2.9990 n         1 MOL     -0.207066
     73 C23        -5.2890   -4.6280   -3.2730 c3        1 MOL     -0.262278
     74 C24        -5.3530   -5.4530   -1.9970 c         1 MOL      0.473354
     75 O13        -4.9790   -6.6340   -2.0730 o         1 MOL     -0.526197
     76 H32        -4.2770   -2.7430   -3.0800 hn        1 MOL      0.177949
     77 H33        -4.4150   -4.9660   -3.8190 h1        1 MOL      0.161842
     78 H34        -6.2330   -4.7630   -3.8030 h1        1 MOL      0.161842
     79 N8         -5.9350   -4.9220   -0.8940 n         1 MOL     -0.222159
     80 C25        -5.7510   -5.3430    0.5040 c3        1 MOL     -0.054804
     81 C26        -5.2250   -4.1340    1.3730 c         1 MOL      0.497021
     82 O14        -5.6630   -3.0180    1.1560 o         1 MOL     -0.515288
     83 C27        -6.9810   -5.9950    1.1330 c3        1 MOL      0.379900
     84 C28        -8.3180   -5.3490    0.9560 c3        1 MOL     -0.298850
     85 O15        -7.1860   -7.3590    0.6610 oh        1 MOL     -0.576882
     86 H35        -6.3480   -4.0030   -0.9610 hn        1 MOL      0.155381
     87 H36        -4.9740   -6.1040    0.5330 h1        1 MOL      0.040985
     88 H37        -6.8410   -6.0710    2.2160 h1        1 MOL     -0.054909
     89 H38        -6.3340   -7.7910    0.8130 ho        1 MOL      0.345180
     90 H39        -8.5410   -5.1640   -0.0970 hc        1 MOL      0.092910
     91 H40        -9.0430   -6.1190    1.2360 hc        1 MOL      0.092910
     92 H41        -8.4320   -4.4730    1.6010 hc        1 MOL      0.092910
     93 N9         -4.3760   -4.3880    2.3410 n         1 MOL     -0.228970
     94 C29        -3.6230   -3.3080    2.9960 c3        1 MOL      0.063550
     95 C30        -2.2830   -3.0190    2.2910 c         1 MOL      0.599905
     96 O16        -1.9530   -1.8360    2.2250 o         1 MOL     -0.516712
     97 C31        -3.3000   -3.6580    4.4650 c3        1 MOL      0.199490
     98 C32        -4.5040   -4.2790    5.2040 c3        1 MOL     -0.175744
     99 C33        -2.6480   -2.4750    5.2290 c3        1 MOL     -0.345121
    100 C34        -5.7790   -3.4570    5.0660 c3        1 MOL     -0.018663
    101 H42        -4.0960   -5.3420    2.4930 hn        1 MOL      0.194721
    102 H43        -4.1410   -2.3620    2.8760 h1        1 MOL      0.043463
    103 H44        -2.5710   -4.4700    4.3750 hc        1 MOL     -0.052184
    104 H45        -4.1200   -4.2780    6.2310 hc        1 MOL      0.041955
    105 H46        -4.6360   -5.2940    4.8410 hc        1 MOL      0.041955
    106 H47        -1.6790   -2.1630    4.8350 hc        1 MOL      0.098383
    107 H48        -3.2980   -1.6200    5.0210 hc        1 MOL      0.098383
    108 H49        -2.5510   -2.7090    6.2820 hc        1 MOL      0.098383
    109 H50        -6.6040   -3.7940    5.6860 hc        1 MOL      0.007395
    110 H51        -5.6490   -2.3960    5.3020 hc        1 MOL      0.007395
    111 H52        -6.1460   -3.6790    4.0640 hc        1 MOL      0.007395
    112 N10        -1.5840   -4.0050    1.7340 n         1 MOL     -0.537812
    113 C35        -0.4610   -3.8450    0.8140 c3        1 MOL      0.150962
    114 C36         0.6770   -4.9060    0.9710 c         1 MOL      0.458765
    115 O17         0.3540   -6.0930    1.2300 o         1 MOL     -0.531451
    116 C37        -1.0110   -3.9850   -0.6040 c3        1 MOL      0.189831
    117 C38        -2.1670   -4.9580   -0.9370 c3        1 MOL     -0.250848
    118 O18        -1.6000   -2.8050   -1.1200 oh        1 MOL     -0.453215
    119 H53        -2.0080   -4.9050    1.9230 hn        1 MOL      0.270211
    120 H54         0.0350   -2.8830    0.8770 h1        1 MOL      0.057837
    121 H55        -0.1360   -4.1940   -1.2040 h1        1 MOL     -0.024734
    122 H56        -1.6590   -2.9120   -2.0730 ho        1 MOL      0.379468
    123 H57        -3.1510   -4.5510   -0.7050 hc        1 MOL      0.062644
    124 H58        -2.0600   -5.2440   -1.9860 hc        1 MOL      0.062644
    125 H59        -2.1140   -5.9410   -0.4590 hc        1 MOL      0.062644
    126 N11         1.9830   -4.6350    0.8410 n         1 MOL     -0.328276
    127 C39         3.0630   -5.5570    1.0710 c3        1 MOL     -0.006370
    128 C40         4.2510   -4.9280    1.7230 c         1 MOL      0.512268
    129 O19         4.3450   -4.9850    2.9500 o         1 MOL     -0.542496
    130 C41         3.4790   -6.3200   -0.1820 c3        1 MOL      0.254469
    131 C42         4.4210   -7.4870    0.1570 c3        1 MOL     -0.283044
    132 O20         4.1360   -5.5470   -1.1280 oh        1 MOL     -0.658484
    133 H60         2.1430   -3.6720    0.6100 hn        1 MOL      0.251181
    134 H61         2.7220   -6.3580    1.7250 h1        1 MOL      0.122975
    135 H62         2.6560   -6.8550   -0.6560 h1        1 MOL      0.052766
    136 H63         4.3160   -6.1110   -1.8870 ho        1 MOL      0.425246
    137 H64         5.3820   -7.0890    0.5070 hc        1 MOL      0.069065
    138 H65         3.9330   -8.1320    0.8840 hc        1 MOL      0.069065
    139 H66         4.5840   -8.0750   -0.7540 hc        1 MOL      0.069065
    140 N12         5.1060   -4.1020    1.0680 n         1 MOL     -0.395781
    141 C43         6.2660   -3.2650    1.5350 c3        1 MOL      0.319867
    142 C44         6.2380   -1.9600    0.8450 c         1 MOL      0.390850
    143 O21         5.8570   -1.8650   -0.3110 o         1 MOL     -0.545048
    144 C45         7.5560   -4.0710    1.3240 c3        1 MOL     -0.656696
    145 C46         8.0310   -4.2430   -0.1240 c3        1 MOL      0.041718
    146 C47         8.9910   -5.4200   -0.3090 c3        1 MOL      0.012713
    147 C48         9.5130   -5.6750   -1.7060 c3        1 MOL     -0.020446
    148 N13        10.4070   -6.8700   -1.7320 n4        1 MOL     -0.081240
    149 H67         4.9700   -4.0540    0.0670 hn        1 MOL      0.269422
    150 H68         6.0940   -3.1540    2.6000 h1        1 MOL      0.046766
    151 H69         7.3200   -5.0610    1.7090 hc        1 MOL      0.199564
    152 H70         8.2750   -3.4440    1.8640 hc        1 MOL      0.199564
    153 H71         8.4310   -3.3510   -0.6120 hc        1 MOL      0.060179
    154 H72         7.2550   -4.4600   -0.8550 hc        1 MOL      0.060179
    155 H73         8.5520   -6.3650   -0.0020 hc        1 MOL      0.032284
    156 H74         9.8620   -5.3250    0.3440 hc        1 MOL      0.032284
    157 H75        10.1910   -4.8820   -2.0210 hx        1 MOL      0.057382
    158 H76         8.6860   -5.8750   -2.3970 hx        1 MOL      0.057382
    159 H77        10.9840   -6.7590   -2.5650 hn        1 MOL      0.164023
    160 H78        10.9900   -6.8640   -0.9100 hn        1 MOL      0.164023
    161 H79         9.9280   -7.7610   -1.7040 hn        1 MOL      0.164023
    162 N14         6.6620   -0.9680    1.6150 n         1 MOL     -0.348796
    163 C49         6.7270    0.4030    1.0410 c3        1 MOL     -0.060338
    164 C50         5.4470    1.0910    0.4780 c         1 MOL      0.709628
    165 O22         5.5670    1.7990   -0.5410 o         1 MOL     -0.797523
    166 C51         7.5230    1.3010    2.0410 c3        1 MOL     -0.023290
    167 C52         7.9660    2.7290    1.4990 c3        1 MOL     -0.417455
    168 C53         9.1890    3.2700    2.2740 c         1 MOL      0.718462
    169 O23         9.1080    3.4190    3.5010 o         1 MOL     -0.676882
    170 O24        10.3010    3.4420    1.7030 o         1 MOL     -0.676882
    171 H80         7.1150   -1.1690    2.4910 hn        1 MOL      0.253749
    172 H81         7.3890    0.3650    0.1720 h1        1 MOL      0.110827
    173 H82         8.4900    0.8390    2.2270 hc        1 MOL      0.062976
    174 H83         6.9950    1.3200    2.9980 hc        1 MOL      0.062976
    175 H84         7.1560    3.4310    1.6920 hc        1 MOL      0.118530
    176 H85         8.1960    2.8130    0.4360 hc        1 MOL      0.118530
    177 N15         4.2300    0.8650    0.9810 n         1 MOL     -0.282634
    178 C54         3.9850    0.4950    2.4470 c3        1 MOL     -0.086620
    179 H86         4.4390   -0.4740    2.6580 h1        1 MOL      0.072455
    180 H87         4.4300    1.2530    3.0930 h1        1 MOL      0.072455
    181 H88         2.9120    0.4400    2.6350 h1        1 MOL      0.072455
    182 H89         3.4270    1.1600    0.4530 hn        1 MOL      0.234467
    183 Ca1         5.0140    3.4330   -2.3910 Ca        1 MOL      1.865878
    184 O25         7.8940    3.3960   -2.7140 oh        1 MOL     -0.839004
    185 H90         8.5560    3.1180   -2.0770 ho        1 MOL      0.415202
    186 H91         8.3930    3.6770   -3.4750 ho        1 MOL      0.415202
    187 O26         5.7900    1.3970   -3.8200 oh        1 MOL     -0.839004
    188 H92         5.4380    1.0090   -4.6250 ho        1 MOL      0.415202
    189 H93         6.6180    0.9460   -3.6680 ho        1 MOL      0.415202
    190 O27         3.6870    5.6670   -2.8070 oh        1 MOL     -0.839004
    191 H94         2.7540    5.8480   -2.8770 ho        1 MOL      0.415202
    192 H95         4.0710    6.5060   -2.5330 ho        1 MOL      0.415202
    193 O28         3.2560    2.5700   -4.3190 oh        1 MOL     -0.839004
    194 H96         2.6450    2.2140   -3.6840 ho        1 MOL      0.415202
    195 H97         2.7760    2.5640   -5.1480 ho        1 MOL      0.415202
    196 O29         5.7930    5.4700   -0.6990 oh        1 MOL     -0.839004
    197 H98         6.4980    6.1220   -0.6570 ho        1 MOL      0.415202
    198 H99         5.1680    5.7600   -0.0310 ho        1 MOL      0.415202
    199 O30         5.8210    4.5050   -4.7760 oh        1 MOL     -0.839004
    200 H100        6.4490    3.9800   -5.2810 ho        1 MOL      0.415202
    201 H101        5.4030    5.0630   -5.4410 ho        1 MOL      0.415202
@<TRIPOS>BOND
     1    1    2 1   
     2    1    4 1   
     3    1    5 1   
     4    1    6 1   
     5    2    3 2   
     6    2    7 1   
     7    7    8 1   
     8    7   15 1   
     9    8    9 1   
    10    8   11 1   
    11    8   16 1   
    12    9   10 2   
    13    9   19 1   
    14   11   12 1   
    15   11   17 1   
    16   11   18 1   
    17   12   13 1   
    18   12   14 1   
    19   19   20 1   
    20   19   28 1   
    21   20   21 1   
    22   20   23 1   
    23   20   29 1   
    24   21   22 2   
    25   21   41 1   
    26   23   24 1   
    27   23   30 1   
    28   23   31 1   
    29   24   25 1   
    30   24   32 1   
    31   24   33 1   
    32   25   26 1   
    33   25   34 1   
    34   25   35 1   
    35   26   27 1   
    36   26   36 1   
    37   26   37 1   
    38   27   38 1   
    39   27   39 1   
    40   27   40 1   
    41   41   42 1   
    42   41   49 1   
    43   42   43 1   
    44   42   45 1   
    45   42   50 1   
    46   43   44 2   
    47   43   53 1   
    48   45   46 1   
    49   45   51 1   
    50   45   52 1   
    51   46   47 1   
    52   46   48 1   
    53   53   54 1   
    54   53   57 1   
    55   54   55 1   
    56   54   58 1   
    57   54   59 1   
    58   55   56 2   
    59   55   60 1   
    60   60   61 1   
    61   60   68 1   
    62   61   62 1   
    63   61   64 1   
    64   61   69 1   
    65   62   63 2   
    66   62   72 1   
    67   64   65 1   
    68   64   70 1   
    69   64   71 1   
    70   65   66 1   
    71   65   67 1   
    72   72   73 1   
    73   72   76 1   
    74   73   74 1   
    75   73   77 1   
    76   73   78 1   
    77   74   75 2   
    78   74   79 1   
    79   79   80 1   
    80   79   86 1   
    81   80   81 1   
    82   80   83 1   
    83   80   87 1   
    84   81   82 2   
    85   81   93 1   
    86   83   84 1   
    87   83   85 1   
    88   83   88 1   
    89   84   90 1   
    90   84   91 1   
    91   84   92 1   
    92   85   89 1   
    93   93   94 1   
    94   93  101 1   
    95   94   95 1   
    96   94   97 1   
    97   94  102 1   
    98   95   96 2   
    99   95  112 1   
   100   97   98 1   
   101   97   99 1   
   102   97  103 1   
   103   98  100 1   
   104   98  104 1   
   105   98  105 1   
   106   99  106 1   
   107   99  107 1   
   108   99  108 1   
   109  100  109 1   
   110  100  110 1   
   111  100  111 1   
   112  112  113 1   
   113  112  119 1   
   114  113  114 1   
   115  113  116 1   
   116  113  120 1   
   117  114  115 2   
   118  114  126 1   
   119  116  117 1   
   120  116  118 1   
   121  116  121 1   
   122  117  123 1   
   123  117  124 1   
   124  117  125 1   
   125  118  122 1   
   126  126  127 1   
   127  126  133 1   
   128  127  128 1   
   129  127  130 1   
   130  127  134 1   
   131  128  129 2   
   132  128  140 1   
   133  130  131 1   
   134  130  132 1   
   135  130  135 1   
   136  131  137 1   
   137  131  138 1   
   138  131  139 1   
   139  132  136 1   
   140  140  141 1   
   141  140  149 1   
   142  141  142 1   
   143  141  144 1   
   144  141  150 1   
   145  142  143 2   
   146  142  162 1   
   147  144  145 1   
   148  144  151 1   
   149  144  152 1   
   150  145  146 1   
   151  145  153 1   
   152  145  154 1   
   153  146  147 1   
   154  146  155 1   
   155  146  156 1   
   156  147  148 1   
   157  147  157 1   
   158  147  158 1   
   159  148  159 1   
   160  148  160 1   
   161  148  161 1   
   162  162  163 1   
   163  162  171 1   
   164  163  164 1   
   165  163  166 1   
   166  163  172 1   
   167  164  165 2   
   168  164  177 1   
   169  166  167 1   
   170  166  173 1   
   171  166  174 1   
   172  167  168 1   
   173  167  175 1   
   174  167  176 1   
   175  168  169 1   
   176  168  170 1   
   177  177  178 1   
   178  177  182 1   
   179  178  179 1   
   180  178  180 1   
   181  178  181 1   
   182  184  185 1   
   183  184  186 1   
   184  187  188 1   
   185  187  189 1   
   186  190  191 1   
   187  190  192 1   
   188  193  194 1   
   189  193  195 1   
   190  196  197 1   
   191  196  198 1   
   192  199  200 1   
   193  199  201 1   
@<TRIPOS>SUBSTRUCTURE
     1 MOL         1 TEMP              0 ****  ****    0 ROOT
