@<TRIPOS>MOLECULE
MOL
  192   187     1     0     0
SMALL
resp


@<TRIPOS>ATOM
      1 C1          4.8130   -1.0440    4.7450 c3        1 MOL     -0.503828
      2 C2          5.1060   -0.3980    3.3210 c         1 MOL      0.648193
      3 O1          4.3140    0.4510    2.9200 o         1 MOL     -0.582818
      4 H1          4.0670   -1.8310    4.6390 hc        1 MOL      0.134825
      5 H2          5.7320   -1.4690    5.1470 hc        1 MOL      0.134825
      6 H3          4.4390   -0.2770    5.4220 hc        1 MOL      0.134825
      7 N1          6.1790   -0.8130    2.7450 n         1 MOL     -0.398073
      8 C3          6.6980   -0.1490    1.5650 c3        1 MOL      0.102273
      9 C4          6.7380   -1.0840    0.2430 c         1 MOL      0.057112
     10 O2          7.1590   -0.6290   -0.8320 o         1 MOL     -0.422568
     11 C5          8.1930    0.1040    1.8720 c3        1 MOL     -0.231327
     12 C6          9.0320   -1.1570    2.1240 c         1 MOL      0.745022
     13 O3          8.9870   -1.6690    3.2660 o         1 MOL     -0.697611
     14 O4          9.9250   -1.3900    1.2420 o         1 MOL     -0.697611
     15 H4          6.7780   -1.4830    3.2080 hn        1 MOL      0.271464
     16 H5          6.1380    0.7700    1.4120 h1        1 MOL      0.079810
     17 H6          8.2870    0.7660    2.7350 hc        1 MOL      0.080293
     18 H7          8.6080    0.6240    1.0080 hc        1 MOL      0.080293
     19 N2          6.2410   -2.3230    0.2860 n         1 MOL     -0.275807
     20 C7          5.8830   -3.1060   -0.9580 c3        1 MOL      0.463207
     21 C8          4.4380   -3.7360   -0.9880 c         1 MOL      0.302185
     22 O5          4.2010   -4.6670   -1.6600 o         1 MOL     -0.474816
     23 C9          6.9260   -4.2210   -1.1710 c3        1 MOL     -0.589751
     24 C10         8.4070   -3.8070   -1.1720 c3        1 MOL      0.368715
     25 C11         9.4560   -4.8850   -1.2640 c3        1 MOL     -0.137856
     26 C12        10.8050   -4.3480   -1.0720 c3        1 MOL      0.024490
     27 N3         11.0400   -3.9090    0.3750 n4        1 MOL     -0.368163
     28 H8          5.9240   -2.7270    1.1580 hn        1 MOL      0.215027
     29 H9          5.9560   -2.3930   -1.7690 h1        1 MOL      0.046886
     30 H10         6.7280   -4.5880   -2.1800 hc        1 MOL      0.122436
     31 H11         6.7270   -4.9740   -0.4150 hc        1 MOL      0.122436
     32 H12         8.6550   -3.3130   -0.2380 hc        1 MOL     -0.013965
     33 H13         8.5850   -3.0830   -1.9690 hc        1 MOL     -0.013965
     34 H14         9.4630   -5.2720   -2.2890 hc        1 MOL      0.045949
     35 H15         9.2690   -5.7250   -0.6050 hc        1 MOL      0.045949
     36 H16        11.0480   -3.6030   -1.8350 hx        1 MOL      0.077464
     37 H17        11.5030   -5.1810   -1.2240 hx        1 MOL      0.077464
     38 H18        10.6790   -2.9840    0.5690 hn        1 MOL      0.305129
     39 H19        10.9080   -4.5790    1.1170 hn        1 MOL      0.305129
     40 H20        12.0440   -3.8540    0.4690 hn        1 MOL      0.305129
     41 N4          3.4050   -3.1780   -0.3570 n         1 MOL     -0.297057
     42 C13         3.2550   -1.9650    0.3680 c3        1 MOL      0.036850
     43 C14         3.4560   -0.7200   -0.5640 c         1 MOL      0.411657
     44 O6          3.4620   -0.7940   -1.8200 o         1 MOL     -0.502849
     45 C15         1.8210   -1.9360    1.0030 c3        1 MOL     -0.155381
     46 C16         0.5980   -2.3600    0.2330 c         1 MOL      0.668839
     47 O7         -0.1460   -1.4530   -0.1630 o         1 MOL     -0.635961
     48 O8          0.4380   -3.5580   -0.0910 o         1 MOL     -0.635961
     49 H21         2.6580   -3.8490   -0.4220 hn        1 MOL      0.276383
     50 H22         4.0290   -1.8880    1.1300 h1        1 MOL      0.007538
     51 H23         1.6810   -0.9250    1.3930 hc        1 MOL      0.003138
     52 H24         1.8500   -2.6280    1.8440 hc        1 MOL      0.003138
     53 N5          3.7610    0.4510    0.0460 n         1 MOL     -0.000399
     54 C17         4.0040    1.6740   -0.7310 c3        1 MOL     -0.404871
     55 C18         2.7970    2.1850   -1.4340 c         1 MOL      0.676052
     56 O9          1.6830    1.7360   -1.1310 o         1 MOL     -0.728147
     57 H25         3.7750    0.5180    1.0530 hn        1 MOL      0.274040
     58 H26         4.8080    1.4070   -1.4100 h1        1 MOL      0.148598
     59 H27         4.3130    2.4410   -0.0130 h1        1 MOL      0.148598
     60 N6          3.0340    3.0680   -2.3900 n         1 MOL     -0.541392
     61 C19         1.9670    3.7700   -3.1190 c3        1 MOL      0.439822
     62 C20         2.3320    5.2390   -3.3110 c         1 MOL      0.399002
     63 O10         3.5020    5.5340   -3.3730 o         1 MOL     -0.542183
     64 C21         1.7280    3.1370   -4.5040 c3        1 MOL     -0.293537
     65 C22         1.3190    1.6860   -4.3440 c         1 MOL      0.732347
     66 O11         0.1990    1.4130   -3.8330 o         1 MOL     -0.671171
     67 O12         2.0250    0.8380   -4.9430 o         1 MOL     -0.671171
     68 H28         3.9740    3.2890   -2.6790 hn        1 MOL      0.317055
     69 H29         1.0360    3.7240   -2.5500 h1        1 MOL     -0.081136
     70 H30         2.6780    3.1910   -5.0190 hc        1 MOL      0.069403
     71 H31         0.9320    3.7030   -4.9870 hc        1 MOL      0.069403
     72 N7          1.4360    6.1590   -3.5500 n         1 MOL     -0.427291
     73 C23        -0.0020    6.1640   -3.3800 c3        1 MOL     -0.094413
     74 C24        -0.5100    5.9940   -1.9780 c         1 MOL      0.589298
     75 O13         0.2620    6.1450   -1.0230 o         1 MOL     -0.493277
     76 H32         1.8420    7.0770   -3.5640 hn        1 MOL      0.325882
     77 H33        -0.4100    5.3120   -3.9210 h1        1 MOL      0.080933
     78 H34        -0.3800    7.1110   -3.7670 h1        1 MOL      0.080933
     79 N8         -1.7970    5.6640   -1.8310 n         1 MOL     -0.504502
     80 C25        -2.3000    5.3380   -0.4140 c3        1 MOL      0.076678
     81 C26        -1.5130    4.1230    0.1450 c         1 MOL      0.527658
     82 O14        -1.2030    3.1950   -0.5680 o         1 MOL     -0.442459
     83 C27        -3.7940    5.1220   -0.3860 c3        1 MOL      0.230007
     84 C28        -4.2920    4.2180   -1.5020 c3        1 MOL     -0.242912
     85 O15        -4.4330    6.3450   -0.6650 oh        1 MOL     -0.646574
     86 H35        -2.4290    5.5730   -2.6180 hn        1 MOL      0.320967
     87 H36        -2.1600    6.2110    0.2100 h1        1 MOL      0.081004
     88 H37        -4.1550    4.8130    0.5910 h1        1 MOL      0.031601
     89 H38        -5.2980    6.4520   -0.2570 ho        1 MOL      0.420609
     90 H39        -4.0080    3.1610   -1.4810 hc        1 MOL      0.080592
     91 H40        -5.3830    4.1770   -1.5600 hc        1 MOL      0.080592
     92 H41        -3.9610    4.6560   -2.4440 hc        1 MOL      0.080592
     93 N9         -1.1500    4.2100    1.4660 n         1 MOL     -0.695187
     94 C29        -0.1700    3.3710    2.2010 c3        1 MOL      0.324481
     95 C30        -0.4010    1.9020    1.9220 c         1 MOL      0.170737
     96 O16         0.1350    1.3310    0.9980 o         1 MOL     -0.376614
     97 C31         1.2700    3.7930    1.9250 c3        1 MOL     -0.047112
     98 C32         1.3940    5.2420    2.4570 c3        1 MOL      0.095503
     99 C33         2.3000    2.9810    2.6610 c3        1 MOL     -0.242379
    100 C34         2.7280    5.9690    2.2760 c3        1 MOL     -0.143826
    101 H42        -1.4180    5.0310    1.9990 hn        1 MOL      0.315997
    102 H43        -0.2490    3.5330    3.2710 h1        1 MOL      0.000736
    103 H44         1.5110    3.6470    0.8710 hc        1 MOL      0.142411
    104 H45         1.1180    5.2190    3.5120 hc        1 MOL     -0.020323
    105 H46         0.6970    5.8880    1.9400 hc        1 MOL     -0.020323
    106 H47         2.1270    3.0120    3.7390 hc        1 MOL      0.055574
    107 H48         2.2430    1.9100    2.4400 hc        1 MOL      0.055574
    108 H49         3.3630    3.1730    2.5610 hc        1 MOL      0.055574
    109 H50         2.5990    7.0430    2.4180 hc        1 MOL      0.039347
    110 H51         3.3750    5.6870    3.1090 hc        1 MOL      0.039347
    111 H52         3.2500    5.7820    1.3350 hc        1 MOL      0.039347
    112 N10        -1.1070    1.2580    2.8390 n         1 MOL     -0.141414
    113 C35        -1.2600   -0.2200    3.0110 c3        1 MOL     -0.490903
    114 C36        -2.6690   -0.7560    3.2030 c         1 MOL      0.453808
    115 O17        -2.9460   -1.9580    3.0800 o         1 MOL     -0.534438
    116 C37        -0.4130   -0.8760    4.1270 c3        1 MOL      0.513585
    117 C38        -0.5520   -0.2990    5.5700 c3        1 MOL     -0.552920
    118 O18         0.9250   -0.8230    3.7630 oh        1 MOL     -0.545432
    119 H53        -1.4470    1.8210    3.6040 hn        1 MOL      0.231298
    120 H54        -0.9570   -0.7990    2.1390 h1        1 MOL      0.233626
    121 H55        -0.5550   -1.9560    4.1570 h1        1 MOL      0.029063
    122 H56         0.9780   -0.3620    2.9150 ho        1 MOL      0.366069
    123 H57        -1.5700   -0.2570    5.9510 hc        1 MOL      0.137608
    124 H58         0.0150   -1.0110    6.1650 hc        1 MOL      0.137608
    125 H59        -0.1700    0.7210    5.6010 hc        1 MOL      0.137608
    126 N11        -3.6850    0.0930    3.4710 n         1 MOL      0.129929
    127 C39        -4.9010   -0.4640    3.7800 c3        1 MOL     -0.507212
    128 C40        -5.6750   -0.7660    2.5460 c         1 MOL      0.684909
    129 O19        -6.2040    0.0930    1.8620 o         1 MOL     -0.531864
    130 C41        -5.7350    0.3610    4.7840 c3        1 MOL      0.273481
    131 C42        -5.0830    0.5810    6.1350 c3        1 MOL     -0.346644
    132 O20        -5.8710    1.6750    4.2840 oh        1 MOL     -0.609865
    133 H60        -3.5630    1.0910    3.4760 hn        1 MOL      0.168840
    134 H61        -4.8270   -1.4060    4.3260 h1        1 MOL      0.154114
    135 H62        -6.7520   -0.0130    4.8810 h1        1 MOL      0.047235
    136 H63        -6.3460    2.1590    4.9740 ho        1 MOL      0.403269
    137 H64        -4.9760   -0.3540    6.6910 hc        1 MOL      0.090256
    138 H65        -4.0590    0.9250    6.0010 hc        1 MOL      0.090256
    139 H66        -5.7140    1.2620    6.6880 hc        1 MOL      0.090256
    140 N12        -5.7230   -2.0560    2.1750 n         1 MOL     -0.391484
    141 C43        -6.1070   -2.6150    0.8670 c3        1 MOL      0.268188
    142 C44        -5.3120   -2.0300   -0.3220 c         1 MOL      0.419604
    143 O21        -4.7690   -0.9270   -0.2990 o         1 MOL     -0.489928
    144 C45        -7.6310   -2.5010    0.4750 c3        1 MOL     -0.417397
    145 C46        -8.6760   -2.9910    1.4260 c3        1 MOL     -0.044383
    146 C47       -10.0870   -2.6340    0.9250 c3        1 MOL      0.124845
    147 C48       -11.2230   -3.1470    1.7910 c3        1 MOL     -0.043787
    148 N13       -12.4290   -2.9060    0.9790 n4        1 MOL     -0.080231
    149 H67        -5.5810   -2.7680    2.8810 hn        1 MOL      0.238402
    150 H68        -5.7600   -3.6420    0.9370 h1        1 MOL      0.039769
    151 H69        -7.7580   -3.0770   -0.4430 hc        1 MOL      0.125430
    152 H70        -7.9290   -1.4620    0.3400 hc        1 MOL      0.125430
    153 H71        -8.3990   -2.4340    2.3170 hc        1 MOL      0.026229
    154 H72        -8.6040   -4.0740    1.5400 hc        1 MOL      0.026229
    155 H73       -10.1640   -3.0670   -0.0710 hc        1 MOL      0.014496
    156 H74       -10.2270   -1.5760    0.7170 hc        1 MOL      0.014496
    157 H75       -11.2500   -2.5300    2.6880 hx        1 MOL      0.078501
    158 H76       -11.1840   -4.2080    2.0340 hx        1 MOL      0.078501
    159 H77       -12.4090   -3.4310    0.1150 hn        1 MOL      0.204885
    160 H78       -13.2410   -3.0220    1.5700 hn        1 MOL      0.204885
    161 H79       -12.4380   -1.9470    0.6570 hn        1 MOL      0.204885
    162 N14        -5.1840   -2.8080   -1.3580 n         1 MOL     -0.447331
    163 C49        -4.2930   -2.3950   -2.4770 c3        1 MOL      0.249715
    164 C50        -2.8450   -2.3170   -2.0730 c         1 MOL      0.371642
    165 O22        -2.2500   -1.2830   -2.2100 o         1 MOL     -0.575470
    166 C51        -4.6650   -3.3470   -3.6820 c3        1 MOL     -0.233322
    167 C52        -6.1100   -3.2250   -4.2250 c3        1 MOL     -0.163701
    168 C53        -6.3230   -4.3600   -5.2750 c         1 MOL      0.644184
    169 O23        -7.0580   -5.3450   -4.9380 o         1 MOL     -0.638676
    170 O24        -5.8490   -4.1760   -6.4620 o         1 MOL     -0.638676
    171 H80        -5.4000   -3.7850   -1.2120 hn        1 MOL      0.281730
    172 H81        -4.5780   -1.3800   -2.7570 h1        1 MOL      0.042041
    173 H82        -4.2690   -4.3510   -3.5350 hc        1 MOL      0.107326
    174 H83        -3.9620   -2.9720   -4.4270 hc        1 MOL      0.107326
    175 H84        -6.2530   -2.2360   -4.6710 hc        1 MOL      0.031798
    176 H85        -6.8390   -3.3910   -3.4280 hc        1 MOL      0.031798
    177 N15        -2.1820   -3.3370   -1.5550 n         1 MOL     -0.235938
    178 C54        -2.5950   -4.7240   -1.2300 c3        1 MOL     -0.151201
    179 H86        -1.7130   -5.3230   -1.0050 h1        1 MOL      0.077489
    180 H87        -3.2570   -4.7140   -0.3640 h1        1 MOL      0.077489
    181 H88        -3.1190   -5.1570   -2.0820 h1        1 MOL      0.077489
    182 H89        -1.2890   -3.1000   -1.1550 hn        1 MOL      0.276704
    183 Ca1        -0.7000    0.6220   -1.4310 Ca        1 MOL      1.721009
    184 O25        -2.7030    1.5420   -3.1010 oh        1 MOL     -0.926903
    185 H90        -2.6490    0.7770   -3.6810 ho        1 MOL      0.428965
    186 H91        -3.6060    1.8640   -3.2050 ho        1 MOL      0.428965
    187 O26         1.1440   -1.0560   -3.0790 oh        1 MOL     -0.926903
    188 H92         1.9920   -1.2120   -2.6550 ho        1 MOL      0.428965
    189 H93         1.3360   -0.5010   -3.8330 ho        1 MOL      0.428965
    190 O27        -2.8200    0.8530    0.2460 oh        1 MOL     -0.926903
    191 H94        -3.3370    1.4570    0.7710 ho        1 MOL      0.428965
    192 H95        -3.4010    0.1070    0.0740 ho        1 MOL      0.428965
@<TRIPOS>BOND
     1    1    2 1   
     2    1    4 1   
     3    1    5 1   
     4    1    6 1   
     5    2    3 2   
     6    2    7 1   
     7    7    8 1   
     8    7   15 1   
     9    8    9 1   
    10    8   11 1   
    11    8   16 1   
    12    9   10 2   
    13    9   19 1   
    14   11   12 1   
    15   11   17 1   
    16   11   18 1   
    17   12   13 1   
    18   12   14 1   
    19   19   20 1   
    20   19   28 1   
    21   20   21 1   
    22   20   23 1   
    23   20   29 1   
    24   21   22 2   
    25   21   41 1   
    26   23   24 1   
    27   23   30 1   
    28   23   31 1   
    29   24   25 1   
    30   24   32 1   
    31   24   33 1   
    32   25   26 1   
    33   25   34 1   
    34   25   35 1   
    35   26   27 1   
    36   26   36 1   
    37   26   37 1   
    38   27   38 1   
    39   27   39 1   
    40   27   40 1   
    41   41   42 1   
    42   41   49 1   
    43   42   43 1   
    44   42   45 1   
    45   42   50 1   
    46   43   44 2   
    47   43   53 1   
    48   45   46 1   
    49   45   51 1   
    50   45   52 1   
    51   46   47 1   
    52   46   48 1   
    53   53   54 1   
    54   53   57 1   
    55   54   55 1   
    56   54   58 1   
    57   54   59 1   
    58   55   56 2   
    59   55   60 1   
    60   60   61 1   
    61   60   68 1   
    62   61   62 1   
    63   61   64 1   
    64   61   69 1   
    65   62   63 2   
    66   62   72 1   
    67   64   65 1   
    68   64   70 1   
    69   64   71 1   
    70   65   66 1   
    71   65   67 1   
    72   72   73 1   
    73   72   76 1   
    74   73   74 1   
    75   73   77 1   
    76   73   78 1   
    77   74   75 2   
    78   74   79 1   
    79   79   80 1   
    80   79   86 1   
    81   80   81 1   
    82   80   83 1   
    83   80   87 1   
    84   81   82 2   
    85   81   93 1   
    86   83   84 1   
    87   83   85 1   
    88   83   88 1   
    89   84   90 1   
    90   84   91 1   
    91   84   92 1   
    92   85   89 1   
    93   93   94 1   
    94   93  101 1   
    95   94   95 1   
    96   94   97 1   
    97   94  102 1   
    98   95   96 2   
    99   95  112 1   
   100   97   98 1   
   101   97   99 1   
   102   97  103 1   
   103   98  100 1   
   104   98  104 1   
   105   98  105 1   
   106   99  106 1   
   107   99  107 1   
   108   99  108 1   
   109  100  109 1   
   110  100  110 1   
   111  100  111 1   
   112  112  113 1   
   113  112  119 1   
   114  113  114 1   
   115  113  116 1   
   116  113  120 1   
   117  114  115 2   
   118  114  126 1   
   119  116  117 1   
   120  116  118 1   
   121  116  121 1   
   122  117  123 1   
   123  117  124 1   
   124  117  125 1   
   125  118  122 1   
   126  126  127 1   
   127  126  133 1   
   128  127  128 1   
   129  127  130 1   
   130  127  134 1   
   131  128  129 2   
   132  128  140 1   
   133  130  131 1   
   134  130  132 1   
   135  130  135 1   
   136  131  137 1   
   137  131  138 1   
   138  131  139 1   
   139  132  136 1   
   140  140  141 1   
   141  140  149 1   
   142  141  142 1   
   143  141  144 1   
   144  141  150 1   
   145  142  143 2   
   146  142  162 1   
   147  144  145 1   
   148  144  151 1   
   149  144  152 1   
   150  145  146 1   
   151  145  153 1   
   152  145  154 1   
   153  146  147 1   
   154  146  155 1   
   155  146  156 1   
   156  147  148 1   
   157  147  157 1   
   158  147  158 1   
   159  148  159 1   
   160  148  160 1   
   161  148  161 1   
   162  162  163 1   
   163  162  171 1   
   164  163  164 1   
   165  163  166 1   
   166  163  172 1   
   167  164  165 2   
   168  164  177 1   
   169  166  167 1   
   170  166  173 1   
   171  166  174 1   
   172  167  168 1   
   173  167  175 1   
   174  167  176 1   
   175  168  169 1   
   176  168  170 1   
   177  177  178 1   
   178  177  182 1   
   179  178  179 1   
   180  178  180 1   
   181  178  181 1   
   182  184  185 1   
   183  184  186 1   
   184  187  188 1   
   185  187  189 1   
   186  190  191 1   
   187  190  192 1   
@<TRIPOS>SUBSTRUCTURE
     1 MOL         1 TEMP              0 ****  ****    0 ROOT
