@<TRIPOS>MOLECULE
MOL
  186   183     1     0     0
SMALL
resp


@<TRIPOS>ATOM
      1 C1          4.9750    4.2000   -4.0910 c3        1 MOL     -0.375403
      2 C2          5.4150    3.4720   -2.8380 c         1 MOL      0.633638
      3 O1          4.5760    3.2770   -1.9240 o         1 MOL     -0.431287
      4 H1          4.4430    5.1100   -3.8140 hc        1 MOL      0.088658
      5 H2          5.8500    4.4590   -4.6880 hc        1 MOL      0.088658
      6 H3          4.3150    3.5570   -4.6730 hc        1 MOL      0.088658
      7 N1          6.5780    2.8130   -2.8260 n         1 MOL     -0.510693
      8 C3          6.9480    1.6990   -2.0010 c3        1 MOL      0.109035
      9 C4          5.8340    0.6860   -1.7110 c         1 MOL      0.378085
     10 O2          5.5480    0.2930   -0.5210 o         1 MOL     -0.384248
     11 C5          7.7490    2.0880   -0.7400 c3        1 MOL     -0.063731
     12 C6          6.9820    3.1140    0.1210 c         1 MOL      0.606133
     13 O3          6.0810    2.6780    0.9140 o         1 MOL     -0.686455
     14 O4          7.3210    4.3140    0.0490 o         1 MOL     -0.686455
     15 H4          7.1390    2.9840   -3.6500 hn        1 MOL      0.276133
     16 H5          7.6790    1.1220   -2.5800 h1        1 MOL      0.034048
     17 H6          8.6760    2.6080   -0.9950 hc        1 MOL      0.004481
     18 H7          8.0720    1.2170   -0.1740 hc        1 MOL      0.004481
     19 N2          5.1920    0.2240   -2.8280 n         1 MOL     -0.448420
     20 C7          4.3610   -1.0210   -3.0000 c3        1 MOL      0.115685
     21 C8          4.9110   -2.2850   -2.4320 c         1 MOL      0.333289
     22 O5          5.2340   -3.2030   -3.1880 o         1 MOL     -0.580269
     23 C9          2.8720   -0.8040   -2.5230 c3        1 MOL      0.445782
     24 C10         2.0230   -2.0940   -2.7100 c3        1 MOL     -0.205730
     25 C11         2.2210    0.4190   -3.2700 c3        1 MOL     -0.040657
     26 C12         1.8810   -2.6090   -4.2110 c3        1 MOL     -0.485356
     27 H8          5.4060    0.7370   -3.6710 hn        1 MOL      0.244293
     28 H9          4.2430   -1.1990   -4.0630 h1        1 MOL     -0.000517
     29 H10         2.9520   -0.4920   -1.4800 hc        1 MOL     -0.018268
     30 H11         1.0530   -1.8360   -2.2670 hc        1 MOL      0.127328
     31 H12         2.4280   -2.9340   -2.1400 hc        1 MOL      0.127328
     32 H13         2.3430    0.2190   -4.3370 hc        1 MOL     -0.019754
     33 H14         1.1380    0.3820   -3.1500 hc        1 MOL     -0.019754
     34 H15         2.7970    1.3070   -3.0040 hc        1 MOL     -0.019754
     35 H16         2.8360   -2.8050   -4.6950 hc        1 MOL      0.114143
     36 H17         1.3510   -3.5670   -4.2410 hc        1 MOL      0.114143
     37 H18         1.3330   -1.8520   -4.7780 hc        1 MOL      0.114143
     38 N3          5.1980   -2.4030   -1.1160 n         1 MOL      0.162559
     39 C13         6.1510   -3.4220   -0.5810 c3        1 MOL      0.006263
     40 C14         5.7830   -4.8970   -0.7660 c         1 MOL      0.644728
     41 O6          6.6100   -5.6560   -1.1660 o         1 MOL     -0.587560
     42 C15         6.6730   -3.1580    0.8420 c3        1 MOL     -0.277896
     43 C16         7.1260   -1.6990    1.0530 c         1 MOL      0.813662
     44 O7          8.2830   -1.4880    0.7050 o         1 MOL     -0.729794
     45 O8          6.5320   -0.8750    1.7700 o         1 MOL     -0.729794
     46 H19         5.0150   -1.6290   -0.4980 hn        1 MOL     -0.092217
     47 H20         6.9890   -3.3320   -1.2780 h1        1 MOL      0.021906
     48 H21         7.4600   -3.8880    1.0070 hc        1 MOL      0.091888
     49 H22         5.8320   -3.4310    1.4970 hc        1 MOL      0.091888
     50 N4          4.5260   -5.3130   -0.4980 n         1 MOL     -0.590492
     51 C17         3.4070   -4.7310    0.2580 c3        1 MOL      0.213308
     52 C18         3.7340   -4.6490    1.8070 c         1 MOL      0.291067
     53 O9          4.5210   -5.4450    2.2190 o         1 MOL     -0.489523
     54 H23         4.3990   -6.2330   -0.9130 hn        1 MOL      0.278621
     55 H24         2.4390   -5.1650   -0.0110 h1        1 MOL      0.020239
     56 H25         3.4210   -3.6880   -0.0580 h1        1 MOL      0.020239
     57 N5          3.1500   -3.8310    2.6930 n         1 MOL     -0.292567
     58 C19         2.0800   -2.7740    2.4980 c3        1 MOL      0.052819
     59 C20         2.3520   -1.6940    1.3870 c         1 MOL      0.210052
     60 O10         3.5210   -1.3260    1.2040 o         1 MOL     -0.561573
     61 C21         2.0120   -2.1200    3.8380 c3        1 MOL     -0.229401
     62 C22         3.3870   -1.4710    4.2880 c         1 MOL      0.760064
     63 O11         3.5650   -0.3450    3.8270 o         1 MOL     -0.692831
     64 O12         4.0130   -2.0330    5.2000 o         1 MOL     -0.692831
     65 H26         3.2290   -4.1210    3.6610 hn        1 MOL      0.287924
     66 H27         1.0650   -3.1410    2.3690 h1        1 MOL      0.005150
     67 H28         1.7550   -2.8990    4.5580 hc        1 MOL      0.047117
     68 H29         1.2870   -1.3070    3.8100 hc        1 MOL      0.047117
     69 N6          1.3270   -1.0540    0.7090 n         1 MOL      0.086036
     70 C23        -0.1360   -1.2490    0.8560 c3        1 MOL     -0.016974
     71 C24        -0.6490   -2.4240    0.0990 c         1 MOL      0.474282
     72 O13         0.0080   -3.1150   -0.7520 o         1 MOL     -0.525146
     73 H30         1.6520   -0.3470    0.0600 hn        1 MOL     -0.128894
     74 H31        -0.6550   -0.3430    0.5170 h1        1 MOL      0.088274
     75 H32        -0.3480   -1.3540    1.9190 h1        1 MOL      0.088274
     76 N7         -1.8670   -2.9260    0.5240 n         1 MOL     -0.445118
     77 C25        -2.5070   -4.1940   -0.0300 c3        1 MOL      0.065531
     78 C26        -3.2520   -3.8950   -1.3750 c         1 MOL      0.305110
     79 O14        -3.6110   -4.7780   -2.1470 o         1 MOL     -0.519346
     80 C27        -3.3390   -4.8920    1.0330 c3        1 MOL     -0.019019
     81 C28        -4.3700   -3.9680    1.6660 c3        1 MOL     -0.470266
     82 C29        -5.5860   -3.5460    0.8340 c         1 MOL      0.450428
     83 N8         -6.4190   -4.4970    0.4550 n         1 MOL     -0.640696
     84 O15        -5.7390   -2.4200    0.3950 o         1 MOL     -0.440365
     85 H33        -2.3670   -2.3420    1.1760 hn        1 MOL      0.287957
     86 H34        -1.6950   -4.9030   -0.2330 h1        1 MOL      0.123074
     87 H35        -2.6480   -5.2860    1.7880 hc        1 MOL      0.063117
     88 H36        -3.8120   -5.7080    0.4920 hc        1 MOL      0.063117
     89 H37        -3.9260   -3.0210    1.9790 hc        1 MOL      0.162484
     90 H38        -4.8360   -4.4370    2.5380 hc        1 MOL      0.162484
     91 H39        -6.2560   -5.4680    0.7010 hn        1 MOL      0.336572
     92 H40        -7.3080   -4.1400    0.1200 hn        1 MOL      0.336572
     93 N9         -3.6040   -2.6340   -1.6170 n         1 MOL      0.074198
     94 C30        -4.0360   -2.1490   -2.9760 c3        1 MOL     -0.366191
     95 C31        -5.3020   -1.2610   -3.0740 c         1 MOL      0.381021
     96 O16        -5.8400   -0.9940   -4.2020 o         1 MOL     -0.548783
     97 C32        -2.9120   -1.4080   -3.7350 c3        1 MOL      0.417245
     98 C33        -1.8070   -2.3570   -4.2630 c3        1 MOL     -0.099910
     99 C34        -2.3510   -0.2500   -2.9500 c3        1 MOL     -0.099910
    100 H41        -3.3630   -2.0430   -0.8320 hn        1 MOL      0.088810
    101 H42        -4.2260   -3.0220   -3.6040 h1        1 MOL      0.164834
    102 H43        -3.3580   -0.8990   -4.5980 hc        1 MOL     -0.062597
    103 H44        -2.3480   -3.1160   -4.8370 hc        1 MOL      0.000172
    104 H45        -1.1730   -1.6910   -4.8530 hc        1 MOL      0.000172
    105 H46        -1.2580   -2.7540   -3.4140 hc        1 MOL      0.000172
    106 H47        -1.9340    0.4600   -3.6720 hc        1 MOL      0.000172
    107 H48        -3.1770    0.2720   -2.4570 hc        1 MOL      0.000172
    108 H49        -1.5390   -0.5500   -2.2940 hc        1 MOL      0.000172
    109 N10        -5.9620   -1.0220   -1.9590 n         1 MOL     -0.001032
    110 C35        -7.2780   -0.2800   -1.9120 c3        1 MOL     -0.233966
    111 C36        -7.1430    1.1530   -1.4000 c         1 MOL      0.575075
    112 O17        -8.1150    1.9990   -1.6110 o         1 MOL     -0.572551
    113 C37        -8.3460   -1.0480   -0.9790 c3        1 MOL     -0.019747
    114 C38        -8.7530   -2.4050   -1.3770 c         1 MOL      0.690001
    115 N11        -9.1020   -2.6500   -2.6210 n         1 MOL     -0.800984
    116 O18        -8.8780   -3.3550   -0.5720 o         1 MOL     -0.598932
    117 H50        -5.6840   -1.4380   -1.0790 hn        1 MOL      0.113068
    118 H51        -7.5920   -0.1750   -2.9440 h1        1 MOL      0.113073
    119 H52        -9.2800   -0.4780   -0.9610 hc        1 MOL      0.025191
    120 H53        -7.8850   -1.1380    0.0140 hc        1 MOL      0.025191
    121 H54        -8.9210   -2.0390   -3.3970 hn        1 MOL      0.367244
    122 H55        -9.2060   -3.6130   -2.8950 hn        1 MOL      0.367244
    123 N12        -6.0070    1.5440   -0.7780 n         1 MOL     -0.429561
    124 C39        -5.7880    2.7560    0.0390 c3        1 MOL      0.181418
    125 C40        -4.3300    3.1470    0.1860 c         1 MOL      0.328380
    126 O19        -3.4360    2.3450   -0.0190 o         1 MOL     -0.401366
    127 C41        -6.5150    2.4820    1.4000 c3        1 MOL     -0.107712
    128 C42        -6.2070    1.1620    2.0810 ca        1 MOL     -0.186502
    129 C43        -7.1780    0.1440    2.1920 ca        1 MOL      0.069458
    130 C44        -5.0410    1.0200    2.9240 ca        1 MOL      0.069458
    131 C45        -7.0660   -0.9840    3.0820 ca        1 MOL     -0.415609
    132 C46        -4.8710   -0.1000    3.7560 ca        1 MOL     -0.415609
    133 C47        -5.9140   -1.0970    3.8770 ca        1 MOL      0.474951
    134 O20        -5.9280   -2.0520    4.8000 oh        1 MOL     -0.489179
    135 H56        -5.2580    0.8870   -0.9400 hn        1 MOL      0.252422
    136 H57        -6.3450    3.5610   -0.4360 h1        1 MOL      0.033492
    137 H58        -7.5700    2.5960    1.2040 hc        1 MOL      0.071472
    138 H59        -6.4030    3.3330    2.0590 hc        1 MOL      0.071472
    139 H60        -8.1500    0.2130    1.7310 ha        1 MOL      0.061652
    140 H61        -4.2340    1.7360    2.8660 ha        1 MOL      0.061652
    141 H62        -7.8600   -1.7220    3.0750 ha        1 MOL      0.186658
    142 H63        -3.9800   -0.1670    4.3560 ha        1 MOL      0.186658
    143 H64        -6.6880   -2.6370    4.7930 ho        1 MOL      0.331980
    144 N13        -4.1070    4.2800    0.8390 n         1 MOL     -0.439326
    145 C48        -2.8850    4.9930    1.3220 c3        1 MOL      0.045647
    146 C49        -1.8830    5.2820    0.2030 c         1 MOL      0.397532
    147 O21        -1.4520    6.4320    0.0660 o         1 MOL     -0.535482
    148 C50        -2.0860    4.2080    2.4530 c3        1 MOL      0.201974
    149 C51        -2.8000    4.5590    3.7390 c3        1 MOL     -0.160241
    150 C52        -2.1830    3.7450    4.9060 c         1 MOL      0.585780
    151 O22        -1.3210    4.3230    5.5530 o         1 MOL     -0.671620
    152 O23        -2.5130    2.5530    5.1080 o         1 MOL     -0.671620
    153 H65        -4.9140    4.8780    0.8910 hn        1 MOL      0.261488
    154 H66        -3.1510    5.9930    1.6900 h1        1 MOL      0.056946
    155 H67        -1.0840    4.6230    2.5470 hc        1 MOL      0.015138
    156 H68        -1.9510    3.1430    2.2930 hc        1 MOL      0.015138
    157 H69        -3.7960    4.1020    3.6460 hc        1 MOL     -0.003755
    158 H70        -2.8020    5.6260    3.9280 hc        1 MOL     -0.003755
    159 N14        -1.3970    4.2860   -0.5030 n         1 MOL     -0.231635
    160 C53        -0.2250    4.3700   -1.3480 c3        1 MOL     -0.369068
    161 C54        -0.5200    5.2560   -2.5760 c         1 MOL      0.597005
    162 O24         0.3900    5.7910   -3.1770 o         1 MOL     -0.543113
    163 C55         0.2870    2.9730   -1.6680 c3        1 MOL     -0.002406
    164 C56         0.4430    2.0600   -0.4570 c3        1 MOL      0.122374
    165 C57         1.6080    2.4160    0.4780 c         1 MOL      0.633205
    166 O25         1.7610    3.5870    0.9140 o         1 MOL     -0.633360
    167 O26         2.4530    1.5620    0.8690 o         1 MOL     -0.633360
    168 H71        -1.7540    3.3520   -0.3010 hn        1 MOL      0.227483
    169 H72         0.5260    4.9060   -0.7570 h1        1 MOL      0.237337
    170 H73         1.1830    3.0470   -2.2930 hc        1 MOL      0.030977
    171 H74        -0.5320    2.5010   -2.2080 hc        1 MOL      0.030977
    172 H75         0.5530    1.0890   -0.9260 hc        1 MOL     -0.066277
    173 H76        -0.4960    1.8980    0.0760 hc        1 MOL     -0.066277
    174 N15        -1.7950    5.4230   -2.9550 n         1 MOL     -0.291979
    175 C58        -2.4270    6.2630   -3.9940 c3        1 MOL     -0.159908
    176 H77        -2.9660    7.0830   -3.5200 h1        1 MOL      0.076892
    177 H78        -1.6580    6.6670   -4.6530 h1        1 MOL      0.076892
    178 H79        -3.1240    5.6590   -4.5750 h1        1 MOL      0.076892
    179 H80        -2.5080    4.9930   -2.3810 hn        1 MOL      0.220917
    180 Ca1         4.6790    0.8770    1.9380 Ca        1 MOL      1.636022
    181 O27         3.5500    3.1570    2.8260 oh        1 MOL     -0.832748
    182 H81         2.9080    3.5280    2.2130 ho        1 MOL      0.402212
    183 H82         3.2430    3.4420    3.6930 ho        1 MOL      0.402212
    184 O28         6.0230    1.9130    3.8640 oh        1 MOL     -0.832748
    185 H83         6.0810    2.4350    4.6560 ho        1 MOL      0.402212
    186 H84         6.9150    1.9000    3.5120 ho        1 MOL      0.402212
@<TRIPOS>BOND
     1    1    2 1   
     2    1    4 1   
     3    1    5 1   
     4    1    6 1   
     5    2    3 2   
     6    2    7 1   
     7    7    8 1   
     8    7   15 1   
     9    8    9 1   
    10    8   11 1   
    11    8   16 1   
    12    9   10 2   
    13    9   19 1   
    14   11   12 1   
    15   11   17 1   
    16   11   18 1   
    17   12   13 1   
    18   12   14 1   
    19   19   20 1   
    20   19   27 1   
    21   20   21 1   
    22   20   23 1   
    23   20   28 1   
    24   21   22 2   
    25   21   38 1   
    26   23   24 1   
    27   23   25 1   
    28   23   29 1   
    29   24   26 1   
    30   24   30 1   
    31   24   31 1   
    32   25   32 1   
    33   25   33 1   
    34   25   34 1   
    35   26   35 1   
    36   26   36 1   
    37   26   37 1   
    38   38   39 1   
    39   38   46 1   
    40   39   40 1   
    41   39   42 1   
    42   39   47 1   
    43   40   41 2   
    44   40   50 1   
    45   42   43 1   
    46   42   48 1   
    47   42   49 1   
    48   43   44 1   
    49   43   45 1   
    50   50   51 1   
    51   50   54 1   
    52   51   52 1   
    53   51   55 1   
    54   51   56 1   
    55   52   53 2   
    56   52   57 1   
    57   57   58 1   
    58   57   65 1   
    59   58   59 1   
    60   58   61 1   
    61   58   66 1   
    62   59   60 2   
    63   59   69 1   
    64   61   62 1   
    65   61   67 1   
    66   61   68 1   
    67   62   63 1   
    68   62   64 1   
    69   69   70 1   
    70   69   73 1   
    71   70   71 1   
    72   70   74 1   
    73   70   75 1   
    74   71   72 2   
    75   71   76 1   
    76   76   77 1   
    77   76   85 1   
    78   77   78 1   
    79   77   80 1   
    80   77   86 1   
    81   78   79 2   
    82   78   93 1   
    83   80   81 1   
    84   80   87 1   
    85   80   88 1   
    86   81   82 1   
    87   81   89 1   
    88   81   90 1   
    89   82   83 1   
    90   82   84 2   
    91   83   91 1   
    92   83   92 1   
    93   93   94 1   
    94   93  100 1   
    95   94   95 1   
    96   94   97 1   
    97   94  101 1   
    98   95   96 2   
    99   95  109 1   
   100   97   98 1   
   101   97   99 1   
   102   97  102 1   
   103   98  103 1   
   104   98  104 1   
   105   98  105 1   
   106   99  106 1   
   107   99  107 1   
   108   99  108 1   
   109  109  110 1   
   110  109  117 1   
   111  110  111 1   
   112  110  113 1   
   113  110  118 1   
   114  111  112 2   
   115  111  123 1   
   116  113  114 1   
   117  113  119 1   
   118  113  120 1   
   119  114  115 1   
   120  114  116 2   
   121  115  121 1   
   122  115  122 1   
   123  123  124 1   
   124  123  135 1   
   125  124  125 1   
   126  124  127 1   
   127  124  136 1   
   128  125  126 2   
   129  125  144 1   
   130  127  128 1   
   131  127  137 1   
   132  127  138 1   
   133  128  129 ar  
   134  128  130 ar  
   135  129  131 ar  
   136  129  139 1   
   137  130  132 ar  
   138  130  140 1   
   139  131  133 ar  
   140  131  141 1   
   141  132  133 ar  
   142  132  142 1   
   143  133  134 1   
   144  134  143 1   
   145  144  145 1   
   146  144  153 1   
   147  145  146 1   
   148  145  148 1   
   149  145  154 1   
   150  146  147 2   
   151  146  159 1   
   152  148  149 1   
   153  148  155 1   
   154  148  156 1   
   155  149  150 1   
   156  149  157 1   
   157  149  158 1   
   158  150  151 1   
   159  150  152 1   
   160  159  160 1   
   161  159  168 1   
   162  160  161 1   
   163  160  163 1   
   164  160  169 1   
   165  161  162 2   
   166  161  174 1   
   167  163  164 1   
   168  163  170 1   
   169  163  171 1   
   170  164  165 1   
   171  164  172 1   
   172  164  173 1   
   173  165  166 1   
   174  165  167 1   
   175  174  175 1   
   176  174  179 1   
   177  175  176 1   
   178  175  177 1   
   179  175  178 1   
   180  181  182 1   
   181  181  183 1   
   182  184  185 1   
   183  184  186 1   
@<TRIPOS>SUBSTRUCTURE
     1 MOL         1 TEMP              0 ****  ****    0 ROOT
