@<TRIPOS>MOLECULE
MOL
  179   176     1     0     0
SMALL
resp


@<TRIPOS>ATOM
      1 C1          3.9680    0.0770    6.1210 c3        1 MOL     -0.345417
      2 C2          3.5310    0.1340    4.6450 c         1 MOL      0.755913
      3 O1          4.2040   -0.4760    3.8040 o         1 MOL     -0.589146
      4 H1          3.5880    0.9540    6.6450 hc        1 MOL      0.087560
      5 H2          3.5670   -0.8240    6.5850 hc        1 MOL      0.087560
      6 H3          5.0560    0.0630    6.1780 hc        1 MOL      0.087560
      7 N1          2.5130    0.9170    4.3390 n         1 MOL     -0.597752
      8 C3          1.9400    1.1290    2.9610 c3        1 MOL     -0.064296
      9 C4          2.5520    2.3340    2.2520 c         1 MOL      0.629041
     10 O2          2.4230    3.5410    2.6670 o         1 MOL     -0.525001
     11 C5          0.4220    1.1600    2.9720 c3        1 MOL     -0.090569
     12 C6         -0.2600    1.4250    1.6820 c         1 MOL      0.357674
     13 O3         -1.5100    1.6250    1.7300 o         1 MOL     -0.648542
     14 O4          0.2930    1.3790    0.5900 o         1 MOL     -0.648542
     15 H4          2.0630    1.3220    5.1530 hn        1 MOL      0.323588
     16 H5          2.1980    0.2570    2.3690 h1        1 MOL      0.046431
     17 H6          0.1250    1.9610    3.6420 hc        1 MOL      0.105508
     18 H7         -0.0420    0.2800    3.4030 hc        1 MOL      0.105508
     19 N2          3.3690    2.0630    1.2560 n         1 MOL     -0.371659
     20 C7          4.2150    3.0420    0.6050 c3        1 MOL     -0.016793
     21 C8          3.3820    4.1150   -0.0890 c         1 MOL      0.446729
     22 O5          3.7920    5.2590    0.0120 o         1 MOL     -0.548246
     23 C9          5.0890    2.2930   -0.4470 c3        1 MOL      0.069120
     24 C10         6.1970    3.1730   -0.9620 c3        1 MOL     -0.152463
     25 C11         6.7970    2.2770   -1.9970 c3        1 MOL      0.208728
     26 C12         7.8270    2.9730   -2.9350 c3        1 MOL     -0.034378
     27 N3          9.0170    3.4530   -2.2070 n4        1 MOL     -0.151934
     28 H8          3.3630    1.1560    0.8120 hn        1 MOL      0.270709
     29 H9          4.7950    3.5320    1.3810 h1        1 MOL      0.103415
     30 H10         4.4320    1.9520   -1.2580 hc        1 MOL      0.009418
     31 H11         5.5210    1.4360    0.0650 hc        1 MOL      0.009418
     32 H12         6.9560    3.4020   -0.2150 hc        1 MOL      0.032458
     33 H13         5.7230    4.0520   -1.4120 hc        1 MOL      0.032458
     34 H14         5.9960    2.0340   -2.7030 hc        1 MOL     -0.009451
     35 H15         7.2650    1.3780   -1.5840 hc        1 MOL     -0.009451
     36 H16         7.3710    3.8640   -3.3560 hx        1 MOL      0.064129
     37 H17         8.0910    2.2730   -3.7340 hx        1 MOL      0.064129
     38 H18         8.8640    4.2160   -1.5560 hn        1 MOL      0.273944
     39 H19         9.5230    2.7100   -1.7530 hn        1 MOL      0.273944
     40 H20         9.6780    3.8770   -2.8470 hn        1 MOL      0.273944
     41 N4          2.3210    3.7410   -0.7990 n         1 MOL     -0.272214
     42 C13         1.5420    4.7470   -1.5200 c3        1 MOL      0.049290
     43 C14         0.4590    5.3650   -0.5460 c         1 MOL      0.379028
     44 O6         -0.1970    6.3450   -0.9340 o         1 MOL     -0.584462
     45 C15         0.9220    4.0450   -2.7420 c3        1 MOL     -0.286205
     46 C16         0.0660    2.7910   -2.4210 c         1 MOL      0.747357
     47 O7         -1.0810    2.9760   -1.9390 o         1 MOL     -0.696365
     48 O8          0.5990    1.6920   -2.3190 o         1 MOL     -0.696365
     49 H21         2.0030    2.7960   -0.6860 hn        1 MOL      0.230139
     50 H22         2.1850    5.5430   -1.9060 h1        1 MOL      0.121458
     51 H23         1.7610    3.7080   -3.3490 hc        1 MOL      0.067193
     52 H24         0.3980    4.7540   -3.3710 hc        1 MOL      0.067193
     53 N5          0.1850    4.7690    0.5710 n         1 MOL      0.150704
     54 C17        -0.7610    5.1090    1.6390 c3        1 MOL     -0.259868
     55 C18        -2.2660    4.8710    1.4340 c         1 MOL      0.676506
     56 O9         -3.0400    5.2630    2.3390 o         1 MOL     -0.571178
     57 H25         0.6060    3.8640    0.6560 hn        1 MOL     -0.089340
     58 H26        -0.7810    6.1460    1.9970 h1        1 MOL      0.112442
     59 H27        -0.4790    4.5410    2.5180 h1        1 MOL      0.112442
     60 N6         -2.6920    4.2400    0.2870 n         1 MOL     -0.379024
     61 C19        -4.1070    4.2980   -0.1650 c3        1 MOL     -0.063185
     62 C20        -4.5580    2.8770   -0.6180 c         1 MOL      0.643750
     63 O10        -3.7270    1.9720   -0.8620 o         1 MOL     -0.637782
     64 C21        -4.2390    5.2000   -1.3970 c3        1 MOL     -0.150782
     65 C22        -4.2100    6.6580   -0.9240 c         1 MOL      0.605601
     66 N7         -3.0680    7.2530   -0.9020 n         1 MOL     -0.781333
     67 O11        -5.2120    7.2520   -0.5210 o         1 MOL     -0.575431
     68 H28        -1.9990    4.1170   -0.4320 hn        1 MOL      0.284174
     69 H29        -4.7910    4.7070    0.5720 h1        1 MOL      0.082648
     70 H30        -5.2490    5.0150   -1.7630 hc        1 MOL      0.038361
     71 H31        -3.4400    4.9960   -2.1060 hc        1 MOL      0.038361
     72 H32        -2.2380    6.7520   -1.1870 hn        1 MOL      0.381324
     73 H33        -3.0200    8.1730   -0.5010 hn        1 MOL      0.381324
     74 N8         -5.8550    2.7140   -0.6620 n         1 MOL     -0.254280
     75 C23        -6.5820    1.6350   -1.2700 c3        1 MOL     -0.259426
     76 C24        -6.4720    0.3870   -0.3920 c         1 MOL      0.624467
     77 O12        -6.6430    0.5650    0.8020 o         1 MOL     -0.484067
     78 H34        -6.4430    3.2860   -0.0620 hn        1 MOL      0.272480
     79 H35        -6.1610    1.5080   -2.2670 h1        1 MOL      0.106003
     80 H36        -7.5900    2.0460   -1.3880 h1        1 MOL      0.106003
     81 N9         -6.1080   -0.7150   -1.0810 n         1 MOL     -0.547344
     82 C25        -5.7660   -1.9310   -0.3090 c3        1 MOL      0.210370
     83 C26        -4.4360   -1.6240    0.4830 c         1 MOL      0.165868
     84 O13        -3.7280   -0.6530    0.2820 o         1 MOL     -0.303661
     85 C27        -5.7580   -3.1330   -1.2840 c3        1 MOL     -0.205852
     86 C28        -7.1250   -3.6690   -1.6230 ca        1 MOL      0.292775
     87 C29        -7.9640   -2.9060   -2.4470 ca        1 MOL     -0.359081
     88 C30        -7.6050   -4.9310   -1.1420 ca        1 MOL     -0.359081
     89 C31        -9.3150   -3.3020   -2.8150 ca        1 MOL     -0.134726
     90 C32        -8.9190   -5.3090   -1.5230 ca        1 MOL     -0.134726
     91 C33        -9.7660   -4.5260   -2.2930 ca        1 MOL      0.253883
     92 O14       -10.9910   -4.9940   -2.5710 oh        1 MOL     -0.456999
     93 H37        -5.8910   -0.6590   -2.0600 hn        1 MOL      0.304279
     94 H38        -6.5230   -2.0730    0.4730 h1        1 MOL      0.060893
     95 H39        -5.2330   -3.9870   -0.8590 hc        1 MOL      0.047194
     96 H40        -5.3040   -2.8590   -2.2320 hc        1 MOL      0.047194
     97 H41        -7.6510   -1.9230   -2.7780 ha        1 MOL      0.177986
     98 H42        -6.9940   -5.4950   -0.4530 ha        1 MOL      0.177986
     99 H43        -9.9770   -2.6250   -3.3280 ha        1 MOL      0.135720
    100 H44        -9.3010   -6.2670   -1.1910 ha        1 MOL      0.135720
    101 H45       -11.1980   -5.8220   -2.1350 ho        1 MOL      0.358370
    102 N10        -4.1240   -2.5710    1.3500 n         1 MOL     -0.416368
    103 C34        -3.0350   -2.5240    2.3970 c3        1 MOL      0.073123
    104 C35        -1.6020   -2.3140    1.9130 c         1 MOL      0.497304
    105 O15        -1.3340   -1.3690    1.1520 o         1 MOL     -0.619058
    106 C36        -3.3900   -1.6160    3.5330 c3        1 MOL      0.295004
    107 C37        -2.6380   -2.0150    4.8420 c3        1 MOL      0.006256
    108 C38        -4.9030   -1.4970    3.7370 c3        1 MOL     -0.276313
    109 C39        -2.7460   -1.2100    6.0920 c3        1 MOL     -0.118863
    110 H46        -4.8540   -3.2690    1.3730 hn        1 MOL      0.286272
    111 H47        -3.0230   -3.5040    2.8690 h1        1 MOL     -0.004483
    112 H48        -3.0830   -0.5960    3.3330 hc        1 MOL      0.030715
    113 H49        -1.5770   -1.9210    4.6280 hc        1 MOL     -0.026505
    114 H50        -2.8400   -3.0620    5.0490 hc        1 MOL     -0.026505
    115 H51        -5.0790   -0.6350    4.3870 hc        1 MOL      0.063971
    116 H52        -5.4340   -1.2350    2.8250 hc        1 MOL      0.063971
    117 H53        -5.3670   -2.3020    4.3140 hc        1 MOL      0.063971
    118 H54        -1.9580   -1.5090    6.7860 hc        1 MOL      0.035606
    119 H55        -2.6670   -0.1250    5.9770 hc        1 MOL      0.035606
    120 H56        -3.7260   -1.4270    6.5280 hc        1 MOL      0.035606
    121 N11        -0.6870   -3.0350    2.4510 n         1 MOL     -0.528834
    122 C40         0.7090   -2.6840    2.3590 c3        1 MOL     -0.024961
    123 C41         1.4700   -2.8740    1.0610 c         1 MOL      0.445772
    124 O16         2.6530   -2.6220    1.0560 o         1 MOL     -0.516571
    125 C42         1.4840   -3.3980    3.4710 c3        1 MOL      0.198043
    126 O17         0.8990   -3.1640    4.7560 oh        1 MOL     -0.587967
    127 H57        -0.8880   -3.7080    3.1730 hn        1 MOL      0.296449
    128 H58         0.7520   -1.6100    2.5480 h1        1 MOL      0.294190
    129 H59         2.5250   -3.0630    3.4480 h1        1 MOL      0.044818
    130 H60         1.5100   -4.4700    3.2490 h1        1 MOL      0.044818
    131 H61         0.5490   -4.0110    5.0430 ho        1 MOL      0.381986
    132 N12         0.7970   -3.2630   -0.0660 n         1 MOL     -0.352094
    133 C43         1.4180   -3.3190   -1.3670 c3        1 MOL      0.065841
    134 C44         1.3250   -1.8710   -1.9850 c         1 MOL      0.701682
    135 O18         0.2770   -1.2290   -1.9760 o         1 MOL     -0.635299
    136 C45         0.6010   -4.3670   -2.1640 c3        1 MOL     -0.326172
    137 H62        -0.1580   -3.5830   -0.0650 hn        1 MOL      0.258623
    138 H63         2.4590   -3.5620   -1.1910 h1        1 MOL      0.104181
    139 H64         0.5340   -5.2390   -1.5210 hc        1 MOL      0.090583
    140 H65        -0.4270   -4.0310   -2.2350 hc        1 MOL      0.090583
    141 H66         1.1120   -4.6190   -3.0970 hc        1 MOL      0.090583
    142 N13         2.4300   -1.2920   -2.5020 n         1 MOL     -0.643225
    143 C46         3.7880   -1.6700   -2.3470 c3        1 MOL      0.274548
    144 C47         4.2350   -3.0920   -2.8310 c         1 MOL      0.580650
    145 O19         3.8820   -3.5040   -3.9410 o         1 MOL     -0.587230
    146 C48         4.5200   -0.5300   -3.0700 c3        1 MOL     -0.068864
    147 H67         2.2560   -0.4360   -3.0090 hn        1 MOL      0.328016
    148 H68         4.1710   -1.5270   -1.3320 h1        1 MOL      0.032619
    149 H69         4.5810   -0.8150   -4.1260 hc        1 MOL      0.019106
    150 H70         4.0320    0.4500   -3.0400 hc        1 MOL      0.019106
    151 H71         5.5280   -0.4970   -2.6640 hc        1 MOL      0.019106
    152 N14         5.0550   -3.9040   -2.1780 n         1 MOL     -0.615960
    153 C49         5.4230   -3.8820   -0.7020 c3        1 MOL     -0.095631
    154 C50         5.1610   -5.2280   -0.0460 c         1 MOL      0.513448
    155 O20         4.7830   -5.3090    1.1110 o         1 MOL     -0.521931
    156 C51         6.8990   -3.5380   -0.5850 c3        1 MOL      0.161019
    157 C52         7.1830   -2.2090   -1.2090 c3        1 MOL     -0.126647
    158 C53         8.6450   -1.7600   -0.9780 c         1 MOL      0.641161
    159 O21         8.8940   -0.8140   -0.1340 o         1 MOL     -0.706099
    160 O22         9.5310   -2.0890   -1.8260 o         1 MOL     -0.706099
    161 H72         5.4100   -4.6370   -2.7700 hn        1 MOL      0.349068
    162 H73         4.8750   -3.1800   -0.0760 h1        1 MOL      0.178664
    163 H74         7.5790   -4.3040   -0.9750 hc        1 MOL     -0.020324
    164 H75         7.0970   -3.4150    0.4810 hc        1 MOL     -0.020324
    165 H76         6.5180   -1.4660   -0.7640 hc        1 MOL      0.000146
    166 H77         6.9970   -2.3500   -2.2720 hc        1 MOL      0.000146
    167 N15         5.3310   -6.3230   -0.7620 n         1 MOL     -0.319909
    168 C54         4.9960   -7.6700   -0.2920 c3        1 MOL     -0.229554
    169 H78         5.4670   -8.4070   -0.9420 h1        1 MOL      0.108723
    170 H79         5.3590   -7.8000    0.7270 h1        1 MOL      0.108723
    171 H80         3.9150   -7.8040   -0.3140 h1        1 MOL      0.108723
    172 H81         5.7770   -6.2490   -1.6740 hn        1 MOL      0.273812
    173 Ca1        -1.4680    0.4640   -0.9200 Ca        1 MOL      1.779688
    174 O23        -2.2570   -2.1300   -1.6900 oh        1 MOL     -0.818727
    175 H82        -2.3290   -2.7510   -0.9670 ho        1 MOL      0.412065
    176 H83        -2.3500   -2.6640   -2.4790 ho        1 MOL      0.412065
    177 O24        -2.3850    0.4910   -3.4760 oh        1 MOL     -0.818727
    178 H84        -2.7890   -0.3650   -3.5120 ho        1 MOL      0.412065
    179 H85        -2.3930    0.8140   -4.3770 ho        1 MOL      0.412065
@<TRIPOS>BOND
     1    1    2 1   
     2    1    4 1   
     3    1    5 1   
     4    1    6 1   
     5    2    3 2   
     6    2    7 1   
     7    7    8 1   
     8    7   15 1   
     9    8    9 1   
    10    8   11 1   
    11    8   16 1   
    12    9   10 2   
    13    9   19 1   
    14   11   12 1   
    15   11   17 1   
    16   11   18 1   
    17   12   13 1   
    18   12   14 1   
    19   19   20 1   
    20   19   28 1   
    21   20   21 1   
    22   20   23 1   
    23   20   29 1   
    24   21   22 2   
    25   21   41 1   
    26   23   24 1   
    27   23   30 1   
    28   23   31 1   
    29   24   25 1   
    30   24   32 1   
    31   24   33 1   
    32   25   26 1   
    33   25   34 1   
    34   25   35 1   
    35   26   27 1   
    36   26   36 1   
    37   26   37 1   
    38   27   38 1   
    39   27   39 1   
    40   27   40 1   
    41   41   42 1   
    42   41   49 1   
    43   42   43 1   
    44   42   45 1   
    45   42   50 1   
    46   43   44 2   
    47   43   53 1   
    48   45   46 1   
    49   45   51 1   
    50   45   52 1   
    51   46   47 1   
    52   46   48 1   
    53   53   54 1   
    54   53   57 1   
    55   54   55 1   
    56   54   58 1   
    57   54   59 1   
    58   55   56 2   
    59   55   60 1   
    60   60   61 1   
    61   60   68 1   
    62   61   62 1   
    63   61   64 1   
    64   61   69 1   
    65   62   63 2   
    66   62   74 1   
    67   64   65 1   
    68   64   70 1   
    69   64   71 1   
    70   65   66 1   
    71   65   67 2   
    72   66   72 1   
    73   66   73 1   
    74   74   75 1   
    75   74   78 1   
    76   75   76 1   
    77   75   79 1   
    78   75   80 1   
    79   76   77 2   
    80   76   81 1   
    81   81   82 1   
    82   81   93 1   
    83   82   83 1   
    84   82   85 1   
    85   82   94 1   
    86   83   84 2   
    87   83  102 1   
    88   85   86 1   
    89   85   95 1   
    90   85   96 1   
    91   86   87 ar  
    92   86   88 ar  
    93   87   89 ar  
    94   87   97 1   
    95   88   90 ar  
    96   88   98 1   
    97   89   91 ar  
    98   89   99 1   
    99   90   91 ar  
   100   90  100 1   
   101   91   92 1   
   102   92  101 1   
   103  102  103 1   
   104  102  110 1   
   105  103  104 1   
   106  103  106 1   
   107  103  111 1   
   108  104  105 2   
   109  104  121 1   
   110  106  107 1   
   111  106  108 1   
   112  106  112 1   
   113  107  109 1   
   114  107  113 1   
   115  107  114 1   
   116  108  115 1   
   117  108  116 1   
   118  108  117 1   
   119  109  118 1   
   120  109  119 1   
   121  109  120 1   
   122  121  122 1   
   123  121  127 1   
   124  122  123 1   
   125  122  125 1   
   126  122  128 1   
   127  123  124 2   
   128  123  132 1   
   129  125  126 1   
   130  125  129 1   
   131  125  130 1   
   132  126  131 1   
   133  132  133 1   
   134  132  137 1   
   135  133  134 1   
   136  133  136 1   
   137  133  138 1   
   138  134  135 2   
   139  134  142 1   
   140  136  139 1   
   141  136  140 1   
   142  136  141 1   
   143  142  143 1   
   144  142  147 1   
   145  143  144 1   
   146  143  146 1   
   147  143  148 1   
   148  144  145 2   
   149  144  152 1   
   150  146  149 1   
   151  146  150 1   
   152  146  151 1   
   153  152  153 1   
   154  152  161 1   
   155  153  154 1   
   156  153  156 1   
   157  153  162 1   
   158  154  155 2   
   159  154  167 1   
   160  156  157 1   
   161  156  163 1   
   162  156  164 1   
   163  157  158 1   
   164  157  165 1   
   165  157  166 1   
   166  158  159 1   
   167  158  160 1   
   168  167  168 1   
   169  167  172 1   
   170  168  169 1   
   171  168  170 1   
   172  168  171 1   
   173  174  175 1   
   174  174  176 1   
   175  177  178 1   
   176  177  179 1   
@<TRIPOS>SUBSTRUCTURE
     1 MOL         1 TEMP              0 ****  ****    0 ROOT
