@<TRIPOS>MOLECULE
MOL
  192   187     1     0     0
SMALL
resp


@<TRIPOS>ATOM
      1 C1         -3.6920    6.7100    2.9340 c3        1 MOL     -0.273120
      2 C2         -3.5010    5.3180    2.3270 c         1 MOL      0.636264
      3 O1         -2.8520    4.5160    2.9020 o         1 MOL     -0.523102
      4 H1         -4.7570    6.9340    3.0000 hc        1 MOL      0.071598
      5 H2         -3.2520    6.7360    3.9310 hc        1 MOL      0.071598
      6 H3         -3.2040    7.4520    2.3020 hc        1 MOL      0.071598
      7 N1         -4.1040    5.0290    1.1480 n         1 MOL     -0.552446
      8 C3         -4.0780    3.9260    0.2460 c3        1 MOL      0.277666
      9 C4         -2.7090    3.4690   -0.3210 c         1 MOL      0.371151
     10 O2         -2.6430    2.6440   -1.2570 o         1 MOL     -0.538382
     11 C5         -5.1460    4.0250   -0.8500 c3        1 MOL     -0.384288
     12 C6         -5.0440    5.3230   -1.6890 c         1 MOL      0.787063
     13 O3         -5.0190    5.3100   -2.9660 o         1 MOL     -0.731002
     14 O4         -5.0850    6.4150   -1.1490 o         1 MOL     -0.731002
     15 H4         -4.7530    5.7280    0.8080 hn        1 MOL      0.281642
     16 H5         -4.4040    3.0620    0.8370 h1        1 MOL      0.026266
     17 H6         -6.0860    3.9700   -0.3020 hc        1 MOL      0.080252
     18 H7         -5.0430    3.2460   -1.6160 hc        1 MOL      0.080252
     19 N2         -1.6130    3.9460    0.2570 n         1 MOL     -0.383761
     20 C7         -0.1670    3.5900   -0.1130 c3        1 MOL      0.062573
     21 C8          0.5310    3.1800    1.1950 c         1 MOL      0.480730
     22 O5          0.3210    3.8430    2.1980 o         1 MOL     -0.514485
     23 C9          0.4800    4.7400   -0.9230 c3        1 MOL      0.015808
     24 C10        -0.0630    5.0370   -2.2550 c3        1 MOL     -0.234378
     25 C11         0.3230    4.0120   -3.3670 c3        1 MOL     -0.051175
     26 C12        -0.1280    4.7010   -4.6490 c3        1 MOL      0.095474
     27 N3          0.8800    4.3920   -5.7360 n4        1 MOL     -0.388095
     28 H8         -1.7090    4.6660    0.9550 hn        1 MOL      0.263177
     29 H9         -0.2680    2.7610   -0.8140 h1        1 MOL      0.190169
     30 H10         1.5150    4.4210   -1.0400 hc        1 MOL      0.026156
     31 H11         0.5130    5.6720   -0.3480 hc        1 MOL      0.026156
     32 H12         0.3690    5.9900   -2.5710 hc        1 MOL      0.100145
     33 H13        -1.1460    5.1710   -2.2900 hc        1 MOL      0.100145
     34 H14        -0.3000    3.1450   -3.1410 hc        1 MOL      0.045233
     35 H15         1.3830    3.7280   -3.3730 hc        1 MOL      0.045233
     36 H16        -0.3040    5.7720   -4.6800 hx        1 MOL      0.078415
     37 H17        -1.0930    4.2280   -4.8570 hx        1 MOL      0.078415
     38 H18         0.6960    4.8490   -6.6190 hn        1 MOL      0.325339
     39 H19         1.7740    4.7250   -5.4410 hn        1 MOL      0.325339
     40 H20         1.0040    3.4310   -6.0440 hn        1 MOL      0.325339
     41 N4          1.3220    2.1430    1.2600 n         1 MOL     -0.417499
     42 C13         1.6670    1.0020    0.2890 c3        1 MOL      0.083822
     43 C14         2.2420    1.4600   -1.0790 c         1 MOL      0.349164
     44 O6          1.8280    1.1000   -2.1840 o         1 MOL     -0.542104
     45 C15         0.5280   -0.0820    0.2850 c3        1 MOL     -0.390791
     46 C16         0.1700   -0.7880    1.5970 c         1 MOL      1.068747
     47 O7         -0.9260   -1.4130    1.6730 o         1 MOL     -0.821173
     48 O8          0.9560   -0.7970    2.5570 o         1 MOL     -0.821173
     49 H21         1.6660    2.0570    2.2060 hn        1 MOL      0.286003
     50 H22         2.5920    0.6060    0.7090 h1        1 MOL      0.118019
     51 H23         0.6510   -0.7860   -0.5310 hc        1 MOL      0.084097
     52 H24        -0.3760    0.4570    0.0130 hc        1 MOL      0.084097
     53 N5          3.2190    2.4250   -1.1000 n         1 MOL     -0.256725
     54 C17         4.1610    2.8000   -0.0570 c3        1 MOL     -0.084493
     55 C18         5.1120    4.0160   -0.4540 c         1 MOL      0.503491
     56 O9          4.8590    4.7500   -1.3840 o         1 MOL     -0.539620
     57 H25         3.4380    2.7720   -2.0190 hn        1 MOL      0.273668
     58 H26         4.8560    1.9940    0.1740 h1        1 MOL      0.050405
     59 H27         3.7400    2.8580    0.9420 h1        1 MOL      0.050405
     60 N6          6.2340    4.2370    0.2420 n         1 MOL     -0.450902
     61 C19         6.7690    3.4440    1.3710 c3        1 MOL      0.139359
     62 C20         7.4960    2.1930    0.8650 c         1 MOL      0.559346
     63 O10         7.8630    2.0500   -0.2770 o         1 MOL     -0.509476
     64 C21         7.7060    4.2920    2.2480 c3        1 MOL     -0.315712
     65 C22         8.6260    5.3370    1.5360 c         1 MOL      0.756399
     66 O11         8.7710    5.5290    0.3090 o         1 MOL     -0.666658
     67 O12         9.2750    6.0970    2.2990 o         1 MOL     -0.666658
     68 H28         6.7690    5.0660    0.0230 hn        1 MOL      0.310795
     69 H29         5.9360    3.0860    1.9600 h1        1 MOL      0.003890
     70 H30         8.2500    3.5810    2.8710 hc        1 MOL      0.052021
     71 H31         7.0920    4.9150    2.9050 hc        1 MOL      0.052021
     72 N7          7.7070    1.2360    1.7690 n         1 MOL     -0.313709
     73 C23         8.4190   -0.0780    1.5720 c3        1 MOL     -0.189076
     74 C24         7.5150   -1.1450    1.0570 c         1 MOL      0.640812
     75 O13         7.9740   -2.0780    0.4580 o         1 MOL     -0.568766
     76 H32         7.2830    1.3630    2.6780 hn        1 MOL      0.228758
     77 H33         8.9370   -0.4670    2.4500 h1        1 MOL      0.122457
     78 H34         9.2440    0.0420    0.8710 h1        1 MOL      0.122457
     79 N8          6.2250   -1.0650    1.3170 n         1 MOL     -0.470781
     80 C25         5.2350   -2.1240    1.1100 c3        1 MOL     -0.026283
     81 C26         4.7130   -1.9750   -0.3480 c         1 MOL      0.716018
     82 O14         4.4920   -0.8440   -0.7790 o         1 MOL     -0.517547
     83 C27         4.0330   -1.9270    2.0580 c3        1 MOL      0.530522
     84 C28         4.3720   -2.1350    3.5270 c3        1 MOL     -0.256811
     85 O15         2.9680   -2.6440    1.6620 oh        1 MOL     -0.638909
     86 H35         5.8630   -0.2600    1.7960 hn        1 MOL      0.188787
     87 H36         5.7120   -3.0990    1.2140 h1        1 MOL      0.057765
     88 H37         3.6670   -0.9120    1.8860 h1        1 MOL     -0.037761
     89 H38         2.2800   -1.9860    1.5690 ho        1 MOL      0.258138
     90 H39         4.8800   -3.0510    3.8360 hc        1 MOL      0.046241
     91 H40         4.9530   -1.2710    3.8480 hc        1 MOL      0.046241
     92 H41         3.4070   -2.0620    4.0350 hc        1 MOL      0.046241
     93 N9          4.4970   -3.1230   -1.0770 n         1 MOL     -0.668226
     94 C29         3.8830   -3.1360   -2.4580 c3        1 MOL     -0.022745
     95 C30         2.5950   -4.0490   -2.5980 c         1 MOL      0.257366
     96 O16         2.0210   -4.0880   -3.6820 o         1 MOL     -0.511289
     97 C31         4.9340   -3.4780   -3.4850 c3        1 MOL      0.134628
     98 C32         5.6060   -4.8470   -3.3910 c3        1 MOL      0.124754
     99 C33         5.9170   -2.2950   -3.7310 c3        1 MOL     -0.389095
    100 C34         4.6520   -6.0000   -3.7820 c3        1 MOL     -0.382702
    101 H42         4.9600   -3.9610   -0.7580 hn        1 MOL      0.339380
    102 H43         3.5360   -2.1180   -2.6630 h1        1 MOL      0.176300
    103 H44         4.3790   -3.5540   -4.4130 hc        1 MOL      0.035722
    104 H45         5.8990   -4.9790   -2.3520 hc        1 MOL     -0.010382
    105 H46         6.5070   -4.9180   -3.9980 hc        1 MOL     -0.010382
    106 H47         6.4320   -1.9880   -2.8140 hc        1 MOL      0.110531
    107 H48         6.6480   -2.6530   -4.4570 hc        1 MOL      0.110531
    108 H49         5.3320   -1.4760   -4.1500 hc        1 MOL      0.110531
    109 H50         4.1280   -5.8180   -4.7230 hc        1 MOL      0.097973
    110 H51         5.3250   -6.8480   -3.8990 hc        1 MOL      0.097973
    111 H52         3.9090   -6.2380   -3.0310 hc        1 MOL      0.097973
    112 N10         2.1460   -4.6780   -1.5080 n         1 MOL     -0.038033
    113 C35         0.8240   -5.4270   -1.4610 c3        1 MOL     -0.037579
    114 C36        -0.3160   -4.4350   -1.0630 c         1 MOL      0.489687
    115 O17        -0.2740   -3.8740    0.0280 o         1 MOL     -0.560098
    116 C37         0.8940   -6.6290   -0.3920 c3        1 MOL      0.419201
    117 C38         1.9810   -7.6270   -0.7270 c3        1 MOL     -0.109549
    118 O18        -0.3680   -7.2200   -0.4050 oh        1 MOL     -0.614330
    119 H53         2.5940   -4.4550   -0.6290 hn        1 MOL      0.171649
    120 H54         0.6190   -5.6900   -2.5020 h1        1 MOL      0.082819
    121 H55         1.0740   -6.1610    0.5700 h1        1 MOL     -0.083281
    122 H56        -0.8190   -6.8590    0.3650 ho        1 MOL      0.380382
    123 H57         2.0560   -7.8340   -1.7980 hc        1 MOL      0.021465
    124 H58         2.9100   -7.0760   -0.5870 hc        1 MOL      0.021465
    125 H59         1.9320   -8.5210   -0.1050 hc        1 MOL      0.021465
    126 N11        -1.2060   -4.0580   -1.9870 n         1 MOL     -0.502902
    127 C39        -1.9150   -2.8130   -2.0180 c3        1 MOL      0.025498
    128 C40        -3.3980   -3.0460   -2.1310 c         1 MOL      0.740580
    129 O19        -3.8220   -3.9370   -2.8180 o         1 MOL     -0.570418
    130 C41        -1.2710   -1.9740   -3.1460 c3        1 MOL      0.254539
    131 C42        -1.6040   -0.4450   -3.0970 c3        1 MOL     -0.027887
    132 O20        -1.4080   -2.5400   -4.4560 oh        1 MOL     -0.625222
    133 H60        -1.2300   -4.6270   -2.8220 hn        1 MOL      0.278045
    134 H61        -1.7130   -2.2860   -1.0900 h1        1 MOL      0.116735
    135 H62        -0.2040   -1.9440   -2.9200 h1        1 MOL      0.060475
    136 H63        -1.0820   -3.4370   -4.3680 ho        1 MOL      0.401812
    137 H64        -1.3820   -0.0810   -2.0940 hc        1 MOL      0.020477
    138 H65        -0.9290    0.1420   -3.7190 hc        1 MOL      0.020477
    139 H66        -2.6260   -0.2430   -3.4410 hc        1 MOL      0.020477
    140 N12        -4.1800   -2.2170   -1.4510 n         1 MOL     -0.640175
    141 C43        -5.7000   -2.2740   -1.4790 c3        1 MOL     -0.110242
    142 C44        -6.3550   -1.7970   -0.1680 c         1 MOL      0.531459
    143 O21        -7.5900   -1.5330   -0.1000 o         1 MOL     -0.583259
    144 C45        -6.1670   -1.5200   -2.6870 c3        1 MOL     -0.205737
    145 C46        -6.0340    0.0030   -2.5160 c3        1 MOL     -0.079623
    146 C47        -6.5230    0.7050   -3.7840 c3        1 MOL      0.260308
    147 C48        -8.0070    0.5800   -4.0330 c3        1 MOL     -0.042969
    148 N13        -8.4220    1.3110   -5.2300 n4        1 MOL     -0.229255
    149 H67        -3.7340   -1.5110   -0.8820 hn        1 MOL      0.318632
    150 H68        -5.8980   -3.3430   -1.5250 h1        1 MOL      0.171322
    151 H69        -7.1670   -1.9140   -2.8410 hc        1 MOL      0.103647
    152 H70        -5.6450   -1.8210   -3.5920 hc        1 MOL      0.103647
    153 H71        -4.9650    0.1940   -2.5130 hc        1 MOL      0.057326
    154 H72        -6.6000    0.2980   -1.6270 hc        1 MOL      0.057326
    155 H73        -5.9790    0.3010   -4.6360 hc        1 MOL     -0.052635
    156 H74        -6.2570    1.7610   -3.6960 hc        1 MOL     -0.052635
    157 H75        -8.5170    1.0460   -3.1840 hx        1 MOL      0.082536
    158 H76        -8.3000   -0.4710   -4.1040 hx        1 MOL      0.082536
    159 H77        -7.8960    1.0240   -6.0340 hn        1 MOL      0.264933
    160 H78        -9.3870    1.3980   -5.5220 hn        1 MOL      0.264933
    161 H79        -8.2040    2.2700   -5.0250 hn        1 MOL      0.264933
    162 N14        -5.6140   -1.5670    0.9090 n         1 MOL     -0.187639
    163 C49        -6.2720   -1.1350    2.2140 c3        1 MOL     -0.241508
    164 C50        -6.7210    0.3490    2.2940 c         1 MOL      0.468325
    165 O22        -5.8990    1.2620    2.2610 o         1 MOL     -0.486593
    166 C51        -5.3120   -1.3840    3.3760 c3        1 MOL     -0.104578
    167 C52        -5.3990   -2.8470    3.9020 c3        1 MOL     -0.081245
    168 C53        -4.1020   -3.0990    4.7090 c         1 MOL      0.676948
    169 O23        -4.2100   -3.2210    5.9470 o         1 MOL     -0.719503
    170 O24        -2.9560   -3.1170    4.1020 o         1 MOL     -0.719503
    171 H80        -4.6170   -1.6890    0.8990 hn        1 MOL      0.230584
    172 H81        -7.1720   -1.7180    2.3980 h1        1 MOL      0.113207
    173 H82        -5.6280   -0.7560    4.2030 hc        1 MOL      0.094731
    174 H83        -4.3200   -1.2060    2.9770 hc        1 MOL      0.094731
    175 H84        -5.5000   -3.6100    3.1330 hc        1 MOL      0.036508
    176 H85        -6.3000   -2.7770    4.5090 hc        1 MOL      0.036508
    177 N15        -8.0710    0.5280    2.4230 n         1 MOL     -0.240650
    178 C54        -8.7040    1.8230    2.4840 c3        1 MOL     -0.031361
    179 H86        -9.5840    1.8280    1.8400 h1        1 MOL      0.052035
    180 H87        -9.0040    2.0340    3.5100 h1        1 MOL      0.052035
    181 H88        -8.0040    2.5870    2.1450 h1        1 MOL      0.052035
    182 H89        -8.6210   -0.2710    2.6880 hn        1 MOL      0.248504
    183 Ca1        -0.4670   -2.3440    4.2850 Ca        1 MOL      1.776860
    184 O25        -1.9990   -0.0350    4.5000 oh        1 MOL     -0.926120
    185 H90        -2.7780   -0.1730    5.0450 ho        1 MOL      0.442102
    186 H91        -2.3490    0.3110    3.6700 ho        1 MOL      0.442102
    187 O26        -1.6320   -2.7080    6.6990 oh        1 MOL     -0.926120
    188 H92        -2.5550   -2.9520    6.7400 ho        1 MOL      0.442102
    189 H93        -1.3190   -2.8060    7.5960 ho        1 MOL      0.442102
    190 O27        -0.3090   -4.3900    2.7740 oh        1 MOL     -0.926120
    191 H94        -0.2920   -4.3500    1.8180 ho        1 MOL      0.442102
    192 H95        -0.2640   -5.3270    2.9830 ho        1 MOL      0.442102
@<TRIPOS>BOND
     1    1    2 1   
     2    1    4 1   
     3    1    5 1   
     4    1    6 1   
     5    2    3 2   
     6    2    7 1   
     7    7    8 1   
     8    7   15 1   
     9    8    9 1   
    10    8   11 1   
    11    8   16 1   
    12    9   10 2   
    13    9   19 1   
    14   11   12 1   
    15   11   17 1   
    16   11   18 1   
    17   12   13 1   
    18   12   14 1   
    19   19   20 1   
    20   19   28 1   
    21   20   21 1   
    22   20   23 1   
    23   20   29 1   
    24   21   22 2   
    25   21   41 1   
    26   23   24 1   
    27   23   30 1   
    28   23   31 1   
    29   24   25 1   
    30   24   32 1   
    31   24   33 1   
    32   25   26 1   
    33   25   34 1   
    34   25   35 1   
    35   26   27 1   
    36   26   36 1   
    37   26   37 1   
    38   27   38 1   
    39   27   39 1   
    40   27   40 1   
    41   41   42 1   
    42   41   49 1   
    43   42   43 1   
    44   42   45 1   
    45   42   50 1   
    46   43   44 2   
    47   43   53 1   
    48   45   46 1   
    49   45   51 1   
    50   45   52 1   
    51   46   47 1   
    52   46   48 1   
    53   53   54 1   
    54   53   57 1   
    55   54   55 1   
    56   54   58 1   
    57   54   59 1   
    58   55   56 2   
    59   55   60 1   
    60   60   61 1   
    61   60   68 1   
    62   61   62 1   
    63   61   64 1   
    64   61   69 1   
    65   62   63 2   
    66   62   72 1   
    67   64   65 1   
    68   64   70 1   
    69   64   71 1   
    70   65   66 1   
    71   65   67 1   
    72   72   73 1   
    73   72   76 1   
    74   73   74 1   
    75   73   77 1   
    76   73   78 1   
    77   74   75 2   
    78   74   79 1   
    79   79   80 1   
    80   79   86 1   
    81   80   81 1   
    82   80   83 1   
    83   80   87 1   
    84   81   82 2   
    85   81   93 1   
    86   83   84 1   
    87   83   85 1   
    88   83   88 1   
    89   84   90 1   
    90   84   91 1   
    91   84   92 1   
    92   85   89 1   
    93   93   94 1   
    94   93  101 1   
    95   94   95 1   
    96   94   97 1   
    97   94  102 1   
    98   95   96 2   
    99   95  112 1   
   100   97   98 1   
   101   97   99 1   
   102   97  103 1   
   103   98  100 1   
   104   98  104 1   
   105   98  105 1   
   106   99  106 1   
   107   99  107 1   
   108   99  108 1   
   109  100  109 1   
   110  100  110 1   
   111  100  111 1   
   112  112  113 1   
   113  112  119 1   
   114  113  114 1   
   115  113  116 1   
   116  113  120 1   
   117  114  115 2   
   118  114  126 1   
   119  116  117 1   
   120  116  118 1   
   121  116  121 1   
   122  117  123 1   
   123  117  124 1   
   124  117  125 1   
   125  118  122 1   
   126  126  127 1   
   127  126  133 1   
   128  127  128 1   
   129  127  130 1   
   130  127  134 1   
   131  128  129 2   
   132  128  140 1   
   133  130  131 1   
   134  130  132 1   
   135  130  135 1   
   136  131  137 1   
   137  131  138 1   
   138  131  139 1   
   139  132  136 1   
   140  140  141 1   
   141  140  149 1   
   142  141  142 1   
   143  141  144 1   
   144  141  150 1   
   145  142  143 2   
   146  142  162 1   
   147  144  145 1   
   148  144  151 1   
   149  144  152 1   
   150  145  146 1   
   151  145  153 1   
   152  145  154 1   
   153  146  147 1   
   154  146  155 1   
   155  146  156 1   
   156  147  148 1   
   157  147  157 1   
   158  147  158 1   
   159  148  159 1   
   160  148  160 1   
   161  148  161 1   
   162  162  163 1   
   163  162  171 1   
   164  163  164 1   
   165  163  166 1   
   166  163  172 1   
   167  164  165 2   
   168  164  177 1   
   169  166  167 1   
   170  166  173 1   
   171  166  174 1   
   172  167  168 1   
   173  167  175 1   
   174  167  176 1   
   175  168  169 1   
   176  168  170 1   
   177  177  178 1   
   178  177  182 1   
   179  178  179 1   
   180  178  180 1   
   181  178  181 1   
   182  184  185 1   
   183  184  186 1   
   184  187  188 1   
   185  187  189 1   
   186  190  191 1   
   187  190  192 1   
@<TRIPOS>SUBSTRUCTURE
     1 MOL         1 TEMP              0 ****  ****    0 ROOT
