@<TRIPOS>MOLECULE
MOL
  182   178     1     0     0
SMALL
resp


@<TRIPOS>ATOM
      1 C1          0.3000   -5.1270    5.6620 c3        1 MOL     -0.434118
      2 C2          0.4360   -4.6120    4.2470 c         1 MOL      0.719238
      3 O1         -0.4790   -4.7000    3.3690 o         1 MOL     -0.611496
      4 H1          0.1190   -4.2900    6.3360 hc        1 MOL      0.121893
      5 H2         -0.5370   -5.8240    5.7170 hc        1 MOL      0.121893
      6 H3          1.2180   -5.6360    5.9540 hc        1 MOL      0.121893
      7 N1          1.5610   -3.9500    3.9880 n         1 MOL     -0.491692
      8 C3          1.8050   -3.3470    2.7090 c3        1 MOL      0.001899
      9 C4          2.2380   -4.3210    1.6430 c         1 MOL      0.583013
     10 O2          3.0260   -5.2170    1.8850 o         1 MOL     -0.546859
     11 C5          2.8940   -2.2610    2.9950 c3        1 MOL      0.161235
     12 C6          3.0460   -1.3480    1.8230 c         1 MOL      0.349122
     13 O3          3.6090   -0.2340    1.9270 o         1 MOL     -0.650064
     14 O4          2.8700   -1.7730    0.6530 o         1 MOL     -0.650064
     15 H4          2.2940   -3.8350    4.6610 hn        1 MOL      0.275452
     16 H5          0.8730   -2.8330    2.4630 h1        1 MOL      0.002276
     17 H6          3.8550   -2.7270    3.1990 hc        1 MOL      0.016140
     18 H7          2.6360   -1.6020    3.8160 hc        1 MOL      0.016140
     19 N2          1.6470   -4.1970    0.4530 n         1 MOL     -0.374214
     20 C7          1.9220   -5.0090   -0.7290 c3        1 MOL      0.159266
     21 C8          3.2600   -4.8490   -1.4390 c         1 MOL      0.384427
     22 O5          3.9290   -5.8640   -1.7220 o         1 MOL     -0.499538
     23 C9          0.7790   -4.8670   -1.6530 c3        1 MOL     -0.089614
     24 C10         0.8780   -5.7270   -2.9660 c3        1 MOL      0.024702
     25 C11         1.1050   -7.2240   -2.7850 c3        1 MOL     -0.004865
     26 C12         0.0030   -8.0060   -1.9300 c3        1 MOL     -0.005901
     27 N3         -1.2840   -8.1630   -2.6320 n4        1 MOL     -0.255945
     28 H8          0.9100   -3.5050    0.4800 hn        1 MOL      0.171190
     29 H9          1.9750   -6.0440   -0.3750 h1        1 MOL      0.054784
     30 H10         0.6380   -3.8120   -1.8930 hc        1 MOL      0.020513
     31 H11        -0.0570   -5.2620   -1.0680 hc        1 MOL      0.020513
     32 H12         1.6610   -5.2710   -3.5810 hc        1 MOL     -0.003415
     33 H13        -0.0930   -5.6260   -3.4430 hc        1 MOL     -0.003415
     34 H14         2.0730   -7.3530   -2.3010 hc        1 MOL      0.031175
     35 H15         1.0550   -7.7420   -3.7450 hc        1 MOL      0.031175
     36 H16        -0.1440   -7.5460   -0.9540 hx        1 MOL      0.090792
     37 H17         0.3940   -9.0060   -1.7330 hx        1 MOL      0.090792
     38 H18        -1.6910   -7.2640   -2.8640 hn        1 MOL      0.261889
     39 H19        -1.2270   -8.7220   -3.4710 hn        1 MOL      0.261889
     40 H20        -2.0100   -8.5880   -2.0740 hn        1 MOL      0.261889
     41 N4          3.6970   -3.5810   -1.7390 n         1 MOL     -0.251579
     42 C13         4.9760   -3.3800   -2.2870 c3        1 MOL      0.049784
     43 C14         6.0630   -3.0160   -1.2480 c         1 MOL      0.264919
     44 O6          7.2700   -3.1460   -1.6240 o         1 MOL     -0.480987
     45 C15         4.9270   -2.3120   -3.4300 c3        1 MOL     -0.203563
     46 C16         4.3730   -0.8700   -3.1040 c         1 MOL      0.665675
     47 O7          4.2620   -0.4910   -1.9170 o         1 MOL     -0.688563
     48 O8          4.0290   -0.1070   -4.0330 o         1 MOL     -0.688563
     49 H21         3.0900   -2.8410   -1.4070 hn        1 MOL      0.201327
     50 H22         5.2370   -4.2560   -2.8700 h1        1 MOL      0.104665
     51 H23         4.2950   -2.7570   -4.2030 hc        1 MOL      0.084877
     52 H24         5.9320   -2.2690   -3.8660 hc        1 MOL      0.084877
     53 N5          5.6910   -2.6290   -0.0560 n         1 MOL      0.022868
     54 C17         6.5180   -2.2560    1.1020 c3        1 MOL     -0.454984
     55 C18         7.0530   -0.8180    1.0090 c         1 MOL      0.657651
     56 O9          7.9660   -0.3530    1.6990 o         1 MOL     -0.593227
     57 H25         4.7030   -2.5560    0.1610 hn        1 MOL      0.160925
     58 H26         7.3500   -2.9650    1.1270 h1        1 MOL      0.179288
     59 H27         5.9200   -2.2860    2.0130 h1        1 MOL      0.179288
     60 N6          6.4800   -0.0590    0.0490 n         1 MOL     -0.215950
     61 C19         6.9460    1.2880   -0.4060 c3        1 MOL     -0.289021
     62 C20         5.9130    2.2850    0.0070 c         1 MOL      0.874155
     63 O10         4.7150    2.0300   -0.0280 o         1 MOL     -0.665398
     64 C21         7.0800    1.2060   -1.9460 c3        1 MOL     -0.194918
     65 C22         8.0220    0.1350   -2.5520 c         1 MOL      0.595987
     66 N7          9.1060   -0.1600   -1.9430 n         1 MOL     -0.760659
     67 O11         7.7730   -0.4920   -3.5340 o         1 MOL     -0.503590
     68 H28         5.7940   -0.5000   -0.5410 hn        1 MOL      0.227357
     69 H29         7.8720    1.6010    0.0760 h1        1 MOL      0.101249
     70 H30         7.2700    2.1960   -2.3690 hc        1 MOL      0.075701
     71 H31         6.1070    1.0460   -2.4230 hc        1 MOL      0.075701
     72 H32         9.3670    0.3510   -1.1150 hn        1 MOL      0.374254
     73 H33         9.7930   -0.7640   -2.3920 hn        1 MOL      0.374254
     74 N8          6.3110    3.5560    0.3180 n         1 MOL     -0.626892
     75 C23         5.3640    4.7220    0.0860 c3        1 MOL      0.149798
     76 C24         4.1300    4.7630    0.9640 c         1 MOL      0.502832
     77 O12         4.0660    4.7230    2.2400 o         1 MOL     -0.513696
     78 H34         7.3040    3.6440    0.4620 hn        1 MOL      0.346429
     79 H35         4.9570    4.8050   -0.9160 h1        1 MOL      0.028170
     80 H36         5.7600    5.7250    0.2530 h1        1 MOL      0.028170
     81 N9          3.0050    4.9920    0.2880 n         1 MOL     -0.450529
     82 C25         1.6640    4.9940    0.8270 c3        1 MOL      0.170648
     83 C26         1.3210    3.5780    1.3090 c         1 MOL      0.337155
     84 O13         2.1290    2.6400    1.1360 o         1 MOL     -0.394306
     85 C27         0.6840    5.3970   -0.2220 c3        1 MOL     -0.076627
     86 C28         0.8730    6.8640   -0.6120 ca        1 MOL     -0.015487
     87 C29         0.7860    7.9410    0.2780 ca        1 MOL     -0.085741
     88 C30         1.1800    7.1180   -1.9240 ca        1 MOL     -0.085741
     89 C31         0.7820    9.2550   -0.2560 ca        1 MOL     -0.280152
     90 C32         1.2020    8.4030   -2.4380 ca        1 MOL     -0.280152
     91 C33         0.9380    9.4850   -1.6010 ca        1 MOL      0.363031
     92 O14         0.8370   10.7660   -2.1000 oh        1 MOL     -0.478913
     93 H37         3.1190    5.3240   -0.6620 hn        1 MOL      0.223847
     94 H38         1.6030    5.6530    1.6900 h1        1 MOL      0.090414
     95 H39        -0.3620    5.3000    0.0390 hc        1 MOL      0.035433
     96 H40         0.7740    4.7250   -1.0800 hc        1 MOL      0.035433
     97 H41         0.5450    7.8460    1.3210 ha        1 MOL      0.104818
     98 H42         1.1480    6.2640   -2.5820 ha        1 MOL      0.104818
     99 H43         0.7270   10.1230    0.3820 ha        1 MOL      0.157172
    100 H44         1.2030    8.4850   -3.5110 ha        1 MOL      0.157172
    101 H45         0.7550   10.8040   -3.0610 ho        1 MOL      0.358460
    102 N10         0.1830    3.3470    1.9560 n         1 MOL     -0.503916
    103 C34        -0.2530    2.0180    2.5630 c3        1 MOL     -0.103643
    104 C35        -0.5190    0.8000    1.6630 c         1 MOL      0.684889
    105 O15         0.3790    0.3430    0.9970 o         1 MOL     -0.488395
    106 C36         0.6860    1.4850    3.7310 c3        1 MOL      0.296298
    107 C37         0.0410    0.3110    4.4810 c3        1 MOL      0.005814
    108 C38         0.9550    2.6530    4.6770 c3        1 MOL     -0.131685
    109 C39         0.7260   -0.0260    5.7670 c3        1 MOL     -0.059425
    110 H46        -0.3390    4.1740    2.2160 hn        1 MOL      0.307011
    111 H47        -1.2440    2.2150    2.9640 h1        1 MOL      0.069743
    112 H48         1.6560    1.1810    3.3490 hc        1 MOL      0.004829
    113 H49         0.0710   -0.5890    3.8710 hc        1 MOL     -0.024606
    114 H50        -0.9690    0.5610    4.8030 hc        1 MOL     -0.024606
    115 H51         0.0620    2.9530    5.2300 hc        1 MOL      0.035256
    116 H52         1.7920    2.4760    5.3540 hc        1 MOL      0.035256
    117 H53         1.3430    3.5710    4.2230 hc        1 MOL      0.035256
    118 H54         1.7860   -0.1910    5.5480 hc        1 MOL      0.010760
    119 H55         0.6310    0.7370    6.5360 hc        1 MOL      0.010760
    120 H56         0.2940   -0.9520    6.1370 hc        1 MOL      0.010760
    121 N11        -1.7300    0.3060    1.6620 n         1 MOL     -0.603633
    122 C40        -2.1530   -0.9440    1.0420 c3        1 MOL     -0.089168
    123 C41        -3.5790   -0.8540    0.4610 c         1 MOL      0.784208
    124 O16        -3.9540   -1.6100   -0.4710 o         1 MOL     -0.629117
    125 C42        -1.9830   -2.1260    2.0470 c3        1 MOL      0.250589
    126 O17        -2.8210   -2.1580    3.1960 oh        1 MOL     -0.614718
    127 H57        -2.2820    0.7500    2.3810 hn        1 MOL      0.286989
    128 H58        -1.5130   -1.1850    0.1880 h1        1 MOL      0.087830
    129 H59        -0.9990   -2.2130    2.5000 h1        1 MOL      0.031923
    130 H60        -2.2390   -3.0330    1.4860 h1        1 MOL      0.031923
    131 H61        -2.3110   -2.6220    3.8730 ho        1 MOL      0.399553
    132 N12        -4.3630    0.1160    0.8750 n         1 MOL     -0.519891
    133 C43        -5.7190    0.2700    0.3630 c3        1 MOL      0.094547
    134 C44        -5.6590    1.3790   -0.7030 c         1 MOL      0.663046
    135 O18        -4.6470    2.0320   -0.8100 o         1 MOL     -0.605420
    136 C45        -6.6280    0.5770    1.5060 c3        1 MOL     -0.277022
    137 H62        -4.0850    0.7480    1.6180 hn        1 MOL      0.305098
    138 H63        -6.0580   -0.6180   -0.1560 h1        1 MOL      0.117008
    139 H64        -7.6220    0.9300    1.2180 hc        1 MOL      0.090882
    140 H65        -6.7120   -0.3940    2.0020 hc        1 MOL      0.090882
    141 H66        -6.1920    1.2700    2.2310 hc        1 MOL      0.090882
    142 N13        -6.6750    1.5810   -1.5110 n         1 MOL     -0.704010
    143 C46        -7.8080    0.6770   -1.6840 c3        1 MOL      0.438561
    144 C47        -9.1290    1.4310   -1.9670 c         1 MOL      0.292542
    145 O19        -9.1400    2.3030   -2.7840 o         1 MOL     -0.505622
    146 C48        -7.3490   -0.3470   -2.7660 c3        1 MOL     -0.322583
    147 H67        -6.6810    2.4570   -2.0060 hn        1 MOL      0.349050
    148 H68        -8.0110    0.0760   -0.8000 h1        1 MOL     -0.009257
    149 H69        -7.3730    0.1070   -3.7470 hc        1 MOL      0.096653
    150 H70        -6.4020   -0.8500   -2.5530 hc        1 MOL      0.096653
    151 H71        -8.1970   -1.0410   -2.8580 hc        1 MOL      0.096653
    152 N14       -10.2940    1.0850   -1.3720 n         1 MOL     -0.221878
    153 C49       -10.4970    0.0040   -0.3740 c3        1 MOL     -0.074349
    154 C50       -10.2790    0.5850    1.0760 c         1 MOL      0.334125
    155 O20        -9.9620   -0.2160    2.0450 o         1 MOL     -0.497793
    156 C51       -11.9500   -0.6000   -0.4930 c3        1 MOL     -0.216115
    157 C52       -12.2880   -1.3450   -1.7480 c3        1 MOL     -0.001093
    158 C53       -11.4170   -2.5730   -2.1580 c         1 MOL      0.669477
    159 O21       -11.2580   -2.8760   -3.3540 o         1 MOL     -0.659338
    160 O22       -10.8530   -3.2790   -1.2750 o         1 MOL     -0.659338
    161 H72       -11.0270    1.7520   -1.5470 hn        1 MOL      0.254599
    162 H73        -9.7840   -0.7900   -0.5920 h1        1 MOL      0.106328
    163 H74       -12.7360    0.1500   -0.4230 hc        1 MOL      0.098740
    164 H75       -12.0570   -1.3860    0.2510 hc        1 MOL      0.098740
    165 H76       -12.3430   -0.6220   -2.5560 hc        1 MOL     -0.023204
    166 H77       -13.3140   -1.7220   -1.6670 hc        1 MOL     -0.023204
    167 N15       -10.2910    1.8710    1.1220 n         1 MOL     -0.235823
    168 C54        -9.8650    2.6250    2.2960 c3        1 MOL     -0.133183
    169 H78        -8.9280    3.1380    2.0780 h1        1 MOL      0.082735
    170 H79       -10.6290    3.3600    2.5530 h1        1 MOL      0.082735
    171 H80        -9.7190    1.9430    3.1330 h1        1 MOL      0.082735
    172 H81       -10.7860    2.3220    0.3650 hn        1 MOL      0.235914
    173 Ca1         2.4900    0.7300   -0.5200 Ca        1 MOL      1.752492
    174 O23         3.3230    2.2100   -2.5520 oh        1 MOL     -0.840336
    175 H82         3.3540    3.1370   -2.8100 ho        1 MOL      0.413160
    176 H83         3.6150    1.7360   -3.3290 ho        1 MOL      0.413160
    177 O24         1.0810   -0.9000   -2.2000 oh        1 MOL     -0.840336
    178 H84         1.3130   -1.3810   -2.9890 ho        1 MOL      0.413160
    179 H85         0.1260   -0.8090   -2.2470 ho        1 MOL      0.413160
    180 O25         0.6000    2.0880   -1.6060 oh        1 MOL     -0.840336
    181 H86        -0.3090    2.2710   -1.3740 ho        1 MOL      0.413160
    182 H87         0.7350    2.5300   -2.4500 ho        1 MOL      0.413160
@<TRIPOS>BOND
     1    1    2 1   
     2    1    4 1   
     3    1    5 1   
     4    1    6 1   
     5    2    3 2   
     6    2    7 1   
     7    7    8 1   
     8    7   15 1   
     9    8    9 1   
    10    8   11 1   
    11    8   16 1   
    12    9   10 2   
    13    9   19 1   
    14   11   12 1   
    15   11   17 1   
    16   11   18 1   
    17   12   13 1   
    18   12   14 1   
    19   19   20 1   
    20   19   28 1   
    21   20   21 1   
    22   20   23 1   
    23   20   29 1   
    24   21   22 2   
    25   21   41 1   
    26   23   24 1   
    27   23   30 1   
    28   23   31 1   
    29   24   25 1   
    30   24   32 1   
    31   24   33 1   
    32   25   26 1   
    33   25   34 1   
    34   25   35 1   
    35   26   27 1   
    36   26   36 1   
    37   26   37 1   
    38   27   38 1   
    39   27   39 1   
    40   27   40 1   
    41   41   42 1   
    42   41   49 1   
    43   42   43 1   
    44   42   45 1   
    45   42   50 1   
    46   43   44 2   
    47   43   53 1   
    48   45   46 1   
    49   45   51 1   
    50   45   52 1   
    51   46   47 1   
    52   46   48 1   
    53   53   54 1   
    54   53   57 1   
    55   54   55 1   
    56   54   58 1   
    57   54   59 1   
    58   55   56 2   
    59   55   60 1   
    60   60   61 1   
    61   60   68 1   
    62   61   62 1   
    63   61   64 1   
    64   61   69 1   
    65   62   63 2   
    66   62   74 1   
    67   64   65 1   
    68   64   70 1   
    69   64   71 1   
    70   65   66 1   
    71   65   67 2   
    72   66   72 1   
    73   66   73 1   
    74   74   75 1   
    75   74   78 1   
    76   75   76 1   
    77   75   79 1   
    78   75   80 1   
    79   76   77 2   
    80   76   81 1   
    81   81   82 1   
    82   81   93 1   
    83   82   83 1   
    84   82   85 1   
    85   82   94 1   
    86   83   84 2   
    87   83  102 1   
    88   85   86 1   
    89   85   95 1   
    90   85   96 1   
    91   86   87 ar  
    92   86   88 ar  
    93   87   89 ar  
    94   87   97 1   
    95   88   90 ar  
    96   88   98 1   
    97   89   91 ar  
    98   89   99 1   
    99   90   91 ar  
   100   90  100 1   
   101   91   92 1   
   102   92  101 1   
   103  102  103 1   
   104  102  110 1   
   105  103  104 1   
   106  103  106 1   
   107  103  111 1   
   108  104  105 2   
   109  104  121 1   
   110  106  107 1   
   111  106  108 1   
   112  106  112 1   
   113  107  109 1   
   114  107  113 1   
   115  107  114 1   
   116  108  115 1   
   117  108  116 1   
   118  108  117 1   
   119  109  118 1   
   120  109  119 1   
   121  109  120 1   
   122  121  122 1   
   123  121  127 1   
   124  122  123 1   
   125  122  125 1   
   126  122  128 1   
   127  123  124 2   
   128  123  132 1   
   129  125  126 1   
   130  125  129 1   
   131  125  130 1   
   132  126  131 1   
   133  132  133 1   
   134  132  137 1   
   135  133  134 1   
   136  133  136 1   
   137  133  138 1   
   138  134  135 2   
   139  134  142 1   
   140  136  139 1   
   141  136  140 1   
   142  136  141 1   
   143  142  143 1   
   144  142  147 1   
   145  143  144 1   
   146  143  146 1   
   147  143  148 1   
   148  144  145 2   
   149  144  152 1   
   150  146  149 1   
   151  146  150 1   
   152  146  151 1   
   153  152  153 1   
   154  152  161 1   
   155  153  154 1   
   156  153  156 1   
   157  153  162 1   
   158  154  155 2   
   159  154  167 1   
   160  156  157 1   
   161  156  163 1   
   162  156  164 1   
   163  157  158 1   
   164  157  165 1   
   165  157  166 1   
   166  158  159 1   
   167  158  160 1   
   168  167  168 1   
   169  167  172 1   
   170  168  169 1   
   171  168  170 1   
   172  168  171 1   
   173  174  175 1   
   174  174  176 1   
   175  177  178 1   
   176  177  179 1   
   177  180  181 1   
   178  180  182 1   
@<TRIPOS>SUBSTRUCTURE
     1 MOL         1 TEMP              0 ****  ****    0 ROOT
