@<TRIPOS>MOLECULE
MOL
  179   176     1     0     0
SMALL
resp


@<TRIPOS>ATOM
      1 C1          0.0250   -4.1010    6.0190 c3        1 MOL     -0.403323
      2 C2          0.2080   -3.9560    4.4690 c         1 MOL      0.712710
      3 O1         -0.7680   -4.0130    3.7360 o         1 MOL     -0.558732
      4 H1         -0.8620   -4.6990    6.2260 hc        1 MOL      0.112614
      5 H2          0.9010   -4.5940    6.4440 hc        1 MOL      0.112614
      6 H3         -0.0900   -3.1140    6.4660 hc        1 MOL      0.112614
      7 N1          1.4150   -3.6480    4.0400 n         1 MOL     -0.506433
      8 C3          1.8040   -3.3040    2.6490 c3        1 MOL      0.005712
      9 C4          1.8480   -4.5290    1.6950 c         1 MOL      0.586419
     10 O2          1.9310   -5.6500    2.2300 o         1 MOL     -0.553505
     11 C5          3.0060   -2.3690    2.6620 c3        1 MOL     -0.093736
     12 C6          3.2360   -1.5610    1.3670 c         1 MOL      0.317183
     13 O3          4.1620   -0.7100    1.3600 o         1 MOL     -0.604065
     14 O4          2.5500   -1.7950    0.3690 o         1 MOL     -0.604065
     15 H4          2.1420   -3.5940    4.7410 hn        1 MOL      0.285946
     16 H5          1.0140   -2.6470    2.2980 h1        1 MOL      0.012707
     17 H6          3.9080   -2.9240    2.9480 hc        1 MOL      0.098357
     18 H7          2.9970   -1.6360    3.4690 hc        1 MOL      0.098357
     19 N2          1.7540   -4.3150    0.3800 n         1 MOL     -0.445991
     20 C7          1.8480   -5.2840   -0.7440 c3        1 MOL      0.231190
     21 C8          3.1780   -5.2290   -1.4800 c         1 MOL      0.388350
     22 O5          3.5620   -6.2410   -2.0340 o         1 MOL     -0.515293
     23 C9          0.5770   -5.0700   -1.6640 c3        1 MOL     -0.229125
     24 C10         0.4540   -3.7880   -2.5230 c3        1 MOL      0.046247
     25 C11        -0.7540   -4.0000   -3.4670 c3        1 MOL      0.144711
     26 C12        -1.0470   -2.8310   -4.3590 c3        1 MOL     -0.069785
     27 N3         -0.3580   -3.0170   -5.6430 n4        1 MOL     -0.230924
     28 H8          1.7920   -3.3140    0.1990 hn        1 MOL      0.223008
     29 H9          1.8160   -6.3150   -0.3900 h1        1 MOL      0.081271
     30 H10        -0.2730   -5.2400   -1.0160 hc        1 MOL      0.055972
     31 H11         0.5940   -5.9290   -2.3280 hc        1 MOL      0.055972
     32 H12         1.3910   -3.6800   -3.0830 hc        1 MOL     -0.016590
     33 H13         0.3090   -2.9180   -1.8780 hc        1 MOL     -0.016590
     34 H14        -1.6350   -4.1430   -2.8290 hc        1 MOL      0.014743
     35 H15        -0.5750   -4.9130   -4.0390 hc        1 MOL      0.014743
     36 H16        -0.7880   -1.9110   -3.8260 hx        1 MOL      0.068370
     37 H17        -2.1270   -2.9400   -4.4540 hx        1 MOL      0.068370
     38 H18         0.6210   -3.2260   -5.5350 hn        1 MOL      0.243118
     39 H19        -0.7230   -3.7540   -6.2150 hn        1 MOL      0.243118
     40 H20        -0.5050   -2.1440   -6.1520 hn        1 MOL      0.243118
     41 N4          3.9260   -4.0980   -1.3670 n         1 MOL     -0.272083
     42 C13         5.1430   -3.8540   -2.1580 c3        1 MOL      0.089563
     43 C14         6.2740   -3.3510   -1.2540 c         1 MOL      0.268327
     44 O6          7.4740   -3.2470   -1.6380 o         1 MOL     -0.523027
     45 C15         4.8280   -2.7610   -3.2500 c3        1 MOL     -0.204817
     46 C16         4.1600   -1.5520   -2.6600 c         1 MOL      0.830797
     47 O7          2.9910   -1.2040   -2.9300 o         1 MOL     -0.836046
     48 O8          4.8590   -0.8840   -1.8910 o         1 MOL     -0.836046
     49 H21         3.5300   -3.3810   -0.7840 hn        1 MOL      0.165668
     50 H22         5.4790   -4.7670   -2.6600 h1        1 MOL      0.122786
     51 H23         4.3280   -3.2830   -4.0680 hc        1 MOL      0.067279
     52 H24         5.7800   -2.4800   -3.7060 hc        1 MOL      0.067279
     53 N5          6.0170   -3.1630    0.0280 n         1 MOL     -0.043516
     54 C17         6.9850   -2.6410    1.0490 c3        1 MOL     -0.328448
     55 C18         7.1940   -1.1810    0.9790 c         1 MOL      0.635846
     56 O9          7.8300   -0.6420    1.8740 o         1 MOL     -0.571433
     57 H25         5.1210   -3.5080    0.3250 hn        1 MOL      0.132606
     58 H26         7.9470   -2.9810    0.6720 h1        1 MOL      0.152708
     59 H27         6.7510   -2.9230    2.0800 h1        1 MOL      0.152708
     60 N6          6.7660   -0.4360   -0.0840 n         1 MOL     -0.253667
     61 C19         7.2600    0.8640   -0.4570 c3        1 MOL     -0.111663
     62 C20         6.2110    1.9450   -0.2590 c         1 MOL      0.706703
     63 O10         4.9880    1.7090   -0.4060 o         1 MOL     -0.672696
     64 C21         7.8190    0.8580   -1.9000 c3        1 MOL     -0.294848
     65 C22         9.1430    0.1020   -1.8540 c         1 MOL      0.716720
     66 N7          9.6160   -0.1970   -3.0680 n         1 MOL     -0.838357
     67 O11         9.7170   -0.2210   -0.8480 o         1 MOL     -0.515263
     68 H28         6.0820   -0.8260   -0.7150 hn        1 MOL      0.396898
     69 H29         7.9740    1.1760    0.3040 h1        1 MOL      0.076068
     70 H30         8.1100    1.8710   -2.1770 hc        1 MOL      0.081239
     71 H31         7.0500    0.4490   -2.5600 hc        1 MOL      0.081239
     72 H32         9.0740   -0.0420   -3.9130 hn        1 MOL      0.371682
     73 H33        10.3880   -0.8470   -3.0120 hn        1 MOL      0.371682
     74 N8          6.6240    3.2080    0.0710 n         1 MOL     -0.466420
     75 C23         5.7390    4.3610   -0.0090 c3        1 MOL     -0.109167
     76 C24         4.5720    4.3690    0.9520 c         1 MOL      0.607460
     77 O12         4.8180    4.0400    2.1720 o         1 MOL     -0.523501
     78 H34         7.5560    3.2890    0.4450 hn        1 MOL      0.341928
     79 H35         5.3100    4.4200   -1.0180 h1        1 MOL      0.081490
     80 H36         6.2780    5.2860    0.1890 h1        1 MOL      0.081490
     81 N9          3.3580    4.7430    0.5730 n         1 MOL     -0.567531
     82 C25         2.1140    4.6470    1.3220 c3        1 MOL      0.287002
     83 C26         1.7910    3.1210    1.5790 c         1 MOL      0.341404
     84 O13         2.4060    2.1390    1.0180 o         1 MOL     -0.420707
     85 C27         0.9790    5.3620    0.5730 c3        1 MOL     -0.069482
     86 C28         1.2370    6.7680   -0.0370 ca        1 MOL      0.038220
     87 C29         1.0100    6.9430   -1.4040 ca        1 MOL     -0.106851
     88 C30         1.7520    7.7920    0.7220 ca        1 MOL     -0.106851
     89 C31         1.1240    8.1860   -2.0560 ca        1 MOL     -0.301315
     90 C32         1.8600    9.0770    0.1260 ca        1 MOL     -0.301315
     91 C33         1.5720    9.2780   -1.2500 ca        1 MOL      0.355127
     92 O14         1.8700   10.5300   -1.7560 oh        1 MOL     -0.455045
     93 H37         3.3190    4.8980   -0.4270 hn        1 MOL      0.244687
     94 H38         2.2170    5.1790    2.2620 h1        1 MOL      0.059170
     95 H39         0.0910    5.4260    1.2090 hc        1 MOL      0.006620
     96 H40         0.5980    4.6350   -0.1510 hc        1 MOL      0.006620
     97 H41         0.6810    6.0880   -1.9840 ha        1 MOL      0.116712
     98 H42         1.9440    7.6220    1.7760 ha        1 MOL      0.116712
     99 H43         1.0860    8.2660   -3.1360 ha        1 MOL      0.173246
    100 H44         2.2590    9.8970    0.7060 ha        1 MOL      0.173246
    101 H45         1.8000   10.5600   -2.7140 ho        1 MOL      0.351584
    102 N10         0.7640    2.8380    2.3740 n         1 MOL     -0.439336
    103 C34         0.2170    1.4970    2.8460 c3        1 MOL     -0.055010
    104 C35        -0.2130    0.5730    1.6690 c         1 MOL      0.626553
    105 O15         0.6000    0.1930    0.8340 o         1 MOL     -0.455480
    106 C36         1.1170    0.8510    3.9070 c3        1 MOL      0.332837
    107 C37         0.3750   -0.2770    4.6540 c3        1 MOL     -0.105944
    108 C38         1.6160    1.8100    5.0220 c3        1 MOL     -0.259555
    109 C39        -0.8040    0.0770    5.5950 c3        1 MOL     -0.165354
    110 H46         0.4060    3.6490    2.8640 hn        1 MOL      0.258817
    111 H47        -0.7450    1.7390    3.2990 h1        1 MOL      0.071513
    112 H48         1.9840    0.3410    3.4750 hc        1 MOL      0.008111
    113 H49         1.0700   -0.9300    5.1800 hc        1 MOL      0.028980
    114 H50        -0.0700   -0.9060    3.8840 hc        1 MOL      0.028980
    115 H51         2.2650    1.2320    5.6830 hc        1 MOL      0.064658
    116 H52         2.1880    2.6600    4.6310 hc        1 MOL      0.064658
    117 H53         0.7290    2.1340    5.5600 hc        1 MOL      0.064658
    118 H54        -1.2520   -0.8200    6.0400 hc        1 MOL      0.047803
    119 H55        -0.5010    0.7180    6.4230 hc        1 MOL      0.047803
    120 H56        -1.6440    0.6010    5.1500 hc        1 MOL      0.047803
    121 N11        -1.4340    0.0490    1.5610 n         1 MOL     -0.646323
    122 C40        -1.8270   -0.9840    0.6380 c3        1 MOL      0.123358
    123 C41        -3.1730   -0.8160   -0.0430 c         1 MOL      0.606531
    124 O16        -3.3000   -1.3780   -1.1160 o         1 MOL     -0.549408
    125 C42        -1.8430   -2.4020    1.3120 c3        1 MOL      0.330324
    126 O17        -2.7230   -2.4570    2.4590 oh        1 MOL     -0.635797
    127 H57        -2.1410    0.2240    2.2600 hn        1 MOL      0.301059
    128 H58        -1.1130   -1.0760   -0.1800 h1        1 MOL      0.080224
    129 H59        -0.8340   -2.5900    1.6750 h1        1 MOL     -0.014954
    130 H60        -2.0580   -3.1540    0.5610 h1        1 MOL     -0.014954
    131 H61        -2.2780   -3.0220    3.0980 ho        1 MOL      0.391896
    132 N12        -4.1440    0.0140    0.4340 n         1 MOL     -0.670217
    133 C43        -5.5150   -0.0270   -0.1390 c3        1 MOL      0.252811
    134 C44        -5.6310    0.7530   -1.5030 c         1 MOL      0.603213
    135 O18        -4.6880    1.5060   -1.8910 o         1 MOL     -0.566185
    136 C45        -6.3760    0.6840    0.9450 c3        1 MOL     -0.290000
    137 H62        -3.8990    0.4390    1.3110 hn        1 MOL      0.335468
    138 H63        -5.7680   -1.0700   -0.2800 h1        1 MOL      0.044950
    139 H64        -5.8810    1.6420    1.0950 hc        1 MOL      0.099221
    140 H65        -7.3680    0.6870    0.5050 hc        1 MOL      0.099221
    141 H66        -6.3120    0.1560    1.9000 hc        1 MOL      0.099221
    142 N13        -6.8150    0.7100   -2.2070 n         1 MOL     -0.684409
    143 C46        -7.9690   -0.2240   -2.1230 c3        1 MOL      0.198057
    144 C47        -9.1510    0.4600   -2.7230 c         1 MOL      0.653595
    145 O19        -9.0770    0.8320   -3.8550 o         1 MOL     -0.543133
    146 C48        -7.5530   -1.5560   -2.7950 c3        1 MOL     -0.292374
    147 H67        -6.8210    1.3600   -2.9940 hn        1 MOL      0.345666
    148 H68        -8.0360   -0.4290   -1.0510 h1        1 MOL      0.036370
    149 H69        -7.5290   -1.5030   -3.8910 hc        1 MOL      0.093904
    150 H70        -6.5110   -1.7980   -2.5640 hc        1 MOL      0.093904
    151 H71        -8.2630   -2.3510   -2.6010 hc        1 MOL      0.093904
    152 N14       -10.2410    0.7200   -1.9220 n         1 MOL     -0.726095
    153 C49       -10.6040    0.1280   -0.6390 c3        1 MOL      0.302474
    154 C50       -10.1430    1.0060    0.5160 c         1 MOL      0.478896
    155 O20        -9.8790    0.4380    1.5540 o         1 MOL     -0.525537
    156 C51       -12.1090   -0.2040   -0.5720 c3        1 MOL     -0.189463
    157 C52       -12.5170   -1.1400    0.5230 c3        1 MOL     -0.171159
    158 C53       -14.0280   -1.4510    0.4140 c         1 MOL      0.739759
    159 O21       -14.3390   -2.5880    0.1150 o         1 MOL     -0.657739
    160 O22       -14.8830   -0.5860    0.7010 o         1 MOL     -0.657739
    161 H72       -10.9940    1.2780   -2.2980 hn        1 MOL      0.345003
    162 H73        -9.9690   -0.7440   -0.4900 h1        1 MOL      0.020271
    163 H74       -12.2970   -0.7260   -1.5050 hc        1 MOL      0.063624
    164 H75       -12.6320    0.7520   -0.5690 hc        1 MOL      0.063624
    165 H76       -12.3560   -0.7190    1.5180 hc        1 MOL      0.038010
    166 H77       -11.8970   -2.0250    0.6020 hc        1 MOL      0.038010
    167 N15        -9.9270    2.3380    0.3880 n         1 MOL     -0.314709
    168 C54        -9.3070    3.2710    1.3310 c3        1 MOL     -0.226254
    169 H78        -8.7000    3.9910    0.7820 h1        1 MOL      0.108053
    170 H79       -10.0830    3.7980    1.8850 h1        1 MOL      0.108053
    171 H80        -8.6740    2.7190    2.0260 h1        1 MOL      0.108053
    172 H81       -10.2990    2.7590   -0.4530 hn        1 MOL      0.239753
    173 Ca1         2.7680    0.4540   -1.0180 Ca        1 MOL      1.784607
    174 O23         1.1690    2.6420   -1.7310 oh        1 MOL     -0.833207
    175 H82         1.3020    3.2890   -2.4390 ho        1 MOL      0.409872
    176 H83         0.3140    2.8570   -1.3730 ho        1 MOL      0.409872
    177 O24         0.3720   -0.0340   -2.4240 oh        1 MOL     -0.833207
    178 H84        -0.5540    0.1790   -2.3650 ho        1 MOL      0.409872
    179 H85         0.5520   -0.1060   -3.3610 ho        1 MOL      0.409872
@<TRIPOS>BOND
     1    1    2 1   
     2    1    4 1   
     3    1    5 1   
     4    1    6 1   
     5    2    3 2   
     6    2    7 1   
     7    7    8 1   
     8    7   15 1   
     9    8    9 1   
    10    8   11 1   
    11    8   16 1   
    12    9   10 2   
    13    9   19 1   
    14   11   12 1   
    15   11   17 1   
    16   11   18 1   
    17   12   13 1   
    18   12   14 1   
    19   19   20 1   
    20   19   28 1   
    21   20   21 1   
    22   20   23 1   
    23   20   29 1   
    24   21   22 2   
    25   21   41 1   
    26   23   24 1   
    27   23   30 1   
    28   23   31 1   
    29   24   25 1   
    30   24   32 1   
    31   24   33 1   
    32   25   26 1   
    33   25   34 1   
    34   25   35 1   
    35   26   27 1   
    36   26   36 1   
    37   26   37 1   
    38   27   38 1   
    39   27   39 1   
    40   27   40 1   
    41   41   42 1   
    42   41   49 1   
    43   42   43 1   
    44   42   45 1   
    45   42   50 1   
    46   43   44 2   
    47   43   53 1   
    48   45   46 1   
    49   45   51 1   
    50   45   52 1   
    51   46   47 1   
    52   46   48 1   
    53   53   54 1   
    54   53   57 1   
    55   54   55 1   
    56   54   58 1   
    57   54   59 1   
    58   55   56 2   
    59   55   60 1   
    60   60   61 1   
    61   60   68 1   
    62   61   62 1   
    63   61   64 1   
    64   61   69 1   
    65   62   63 2   
    66   62   74 1   
    67   64   65 1   
    68   64   70 1   
    69   64   71 1   
    70   65   66 1   
    71   65   67 2   
    72   66   72 1   
    73   66   73 1   
    74   74   75 1   
    75   74   78 1   
    76   75   76 1   
    77   75   79 1   
    78   75   80 1   
    79   76   77 2   
    80   76   81 1   
    81   81   82 1   
    82   81   93 1   
    83   82   83 1   
    84   82   85 1   
    85   82   94 1   
    86   83   84 2   
    87   83  102 1   
    88   85   86 1   
    89   85   95 1   
    90   85   96 1   
    91   86   87 ar  
    92   86   88 ar  
    93   87   89 ar  
    94   87   97 1   
    95   88   90 ar  
    96   88   98 1   
    97   89   91 ar  
    98   89   99 1   
    99   90   91 ar  
   100   90  100 1   
   101   91   92 1   
   102   92  101 1   
   103  102  103 1   
   104  102  110 1   
   105  103  104 1   
   106  103  106 1   
   107  103  111 1   
   108  104  105 2   
   109  104  121 1   
   110  106  107 1   
   111  106  108 1   
   112  106  112 1   
   113  107  109 1   
   114  107  113 1   
   115  107  114 1   
   116  108  115 1   
   117  108  116 1   
   118  108  117 1   
   119  109  118 1   
   120  109  119 1   
   121  109  120 1   
   122  121  122 1   
   123  121  127 1   
   124  122  123 1   
   125  122  125 1   
   126  122  128 1   
   127  123  124 2   
   128  123  132 1   
   129  125  126 1   
   130  125  129 1   
   131  125  130 1   
   132  126  131 1   
   133  132  133 1   
   134  132  137 1   
   135  133  134 1   
   136  133  136 1   
   137  133  138 1   
   138  134  135 2   
   139  134  142 1   
   140  136  139 1   
   141  136  140 1   
   142  136  141 1   
   143  142  143 1   
   144  142  147 1   
   145  143  144 1   
   146  143  146 1   
   147  143  148 1   
   148  144  145 2   
   149  144  152 1   
   150  146  149 1   
   151  146  150 1   
   152  146  151 1   
   153  152  153 1   
   154  152  161 1   
   155  153  154 1   
   156  153  156 1   
   157  153  162 1   
   158  154  155 2   
   159  154  167 1   
   160  156  157 1   
   161  156  163 1   
   162  156  164 1   
   163  157  158 1   
   164  157  165 1   
   165  157  166 1   
   166  158  159 1   
   167  158  160 1   
   168  167  168 1   
   169  167  172 1   
   170  168  169 1   
   171  168  170 1   
   172  168  171 1   
   173  174  175 1   
   174  174  176 1   
   175  177  178 1   
   176  177  179 1   
@<TRIPOS>SUBSTRUCTURE
     1 MOL         1 TEMP              0 ****  ****    0 ROOT
