@<TRIPOS>MOLECULE
MOL
  184   179     1     0     0
SMALL
resp


@<TRIPOS>ATOM
      1 C1          0.2230    5.3450   -2.1340 c3        1 MOL     -0.250516
      2 C2          1.6800    5.5710   -1.6190 c         1 MOL      0.579717
      3 O1          1.8280    5.9520   -0.4730 o         1 MOL     -0.529283
      4 H1         -0.1310    4.3690   -1.8020 hc        1 MOL      0.057953
      5 H2         -0.4280    6.1220   -1.7340 hc        1 MOL      0.057953
      6 H3          0.2120    5.3850   -3.2230 hc        1 MOL      0.057953
      7 N1          2.7180    5.2920   -2.4740 n         1 MOL     -0.512041
      8 C3          4.1590    5.4650   -2.1360 c3        1 MOL      0.094877
      9 C4          4.7250    4.3590   -1.1390 c         1 MOL      0.729582
     10 O2          4.3890    3.1700   -1.3330 o         1 MOL     -0.591140
     11 C5          4.9840    5.7260   -3.4350 c3        1 MOL     -0.364932
     12 C6          6.5010    5.7820   -3.1370 c         1 MOL      0.698269
     13 O3          7.3310    4.8950   -3.4200 o         1 MOL     -0.716899
     14 O4          7.0090    6.7360   -2.4410 o         1 MOL     -0.716899
     15 H4          2.5140    4.9140   -3.3870 hn        1 MOL      0.307941
     16 H5          4.1570    6.4000   -1.5740 h1        1 MOL      0.038642
     17 H6          4.6780    6.6630   -3.9130 hc        1 MOL      0.066326
     18 H7          4.6950    4.9530   -4.1470 hc        1 MOL      0.066326
     19 N2          5.4290    4.8390   -0.0910 n         1 MOL     -0.549394
     20 C7          5.8290    3.9970    1.0720 c3        1 MOL      0.424770
     21 C8          4.6280    3.3040    1.8120 c         1 MOL      0.298318
     22 O5          3.4860    3.7900    1.9130 o         1 MOL     -0.515242
     23 C9          6.6420    4.8760    1.9920 c3        1 MOL     -0.328528
     24 H8          5.4330    5.8340    0.0960 hn        1 MOL      0.260408
     25 H9          6.4160    3.1830    0.6580 h1        1 MOL     -0.008605
     26 H10         6.8110    4.2270    2.8380 hc        1 MOL      0.078267
     27 H11         7.6620    5.0500    1.6280 hc        1 MOL      0.078267
     28 H12         6.1450    5.7950    2.2900 hc        1 MOL      0.078267
     29 N3          4.7750    2.0610    2.3270 n         1 MOL     -0.357411
     30 C10         5.9900    1.2320    2.5320 c3        1 MOL      0.338886
     31 C11         6.4830    0.4570    1.3300 c         1 MOL      0.457203
     32 O6          5.6540    0.1410    0.3970 o         1 MOL     -0.488425
     33 C12         5.7160    0.4330    3.7860 c3        1 MOL     -0.305493
     34 C13         4.3960   -0.3160    3.7870 c         1 MOL      0.752807
     35 O7          4.3620   -1.5780    3.7430 o         1 MOL     -0.691079
     36 O8          3.3380    0.3520    3.8910 o         1 MOL     -0.691079
     37 H13         3.9200    1.7930    2.7880 hn        1 MOL      0.232391
     38 H14         6.8430    1.8590    2.7940 h1        1 MOL     -0.047547
     39 H15         5.8450    1.0890    4.6500 hc        1 MOL      0.039776
     40 H16         6.6010   -0.2050    3.8910 hc        1 MOL      0.039776
     41 N4          7.7100   -0.0350    1.3680 n         1 MOL     -0.533825
     42 C14         8.1340   -0.9910    0.4230 c3        1 MOL      0.174707
     43 C15         8.1170   -2.4130    0.8990 c         1 MOL      0.539861
     44 O9          7.8460   -2.5140    2.0910 o         1 MOL     -0.522059
     45 H17         8.3570    0.1340    2.1330 hn        1 MOL      0.309084
     46 H18         9.0590   -0.6010    0.0150 h1        1 MOL      0.046280
     47 H19         7.4560   -0.9890   -0.4360 h1        1 MOL      0.046280
     48 N5          8.3860   -3.4760    0.1450 n         1 MOL     -0.592208
     49 C16         8.4410   -3.6090   -1.3730 c3        1 MOL      0.344972
     50 C17         7.2190   -3.0530   -2.0940 c         1 MOL      0.365124
     51 O10         7.4530   -2.3940   -3.0770 o         1 MOL     -0.451745
     52 C18         9.8070   -3.1220   -1.8410 c3        1 MOL     -0.432056
     53 C19        11.0020   -3.7800   -1.2350 c         1 MOL      0.765523
     54 N6         11.7660   -4.4740   -2.0090 n         1 MOL     -0.757529
     55 O11        11.2780   -3.7680   -0.0720 o         1 MOL     -0.564261
     56 H20         7.9660   -4.2600    0.6260 hn        1 MOL      0.301848
     57 H21         8.3730   -4.6780   -1.5950 h1        1 MOL      0.020788
     58 H22         9.8760   -2.0450   -1.7200 hc        1 MOL      0.095400
     59 H23         9.8590   -3.2980   -2.9200 hc        1 MOL      0.095400
     60 H24        11.5260   -4.4460   -2.9880 hn        1 MOL      0.332578
     61 H25        12.7500   -4.5860   -1.7940 hn        1 MOL      0.332578
     62 N7          5.9020   -3.3180   -1.6870 n         1 MOL     -0.384083
     63 C20         4.6570   -2.8720   -2.2530 c3        1 MOL      0.068203
     64 C21         3.4530   -3.8070   -2.0290 c         1 MOL      0.395209
     65 O12         3.4200   -4.9530   -2.5550 o         1 MOL     -0.550060
     66 H26         5.8720   -3.8620   -0.8330 hn        1 MOL      0.267541
     67 H27         4.8520   -2.6960   -3.3110 h1        1 MOL      0.065974
     68 H28         4.3620   -1.9120   -1.8350 h1        1 MOL      0.065974
     69 N8          2.4450   -3.4360   -1.2740 n         1 MOL     -0.327327
     70 C22         1.2330   -4.2390   -0.9790 c3        1 MOL      0.118776
     71 C23        -0.0920   -3.4490   -0.9700 c         1 MOL      0.452185
     72 O13         0.0130   -2.2520   -0.8750 o         1 MOL     -0.524998
     73 C24         1.3520   -5.0730    0.2670 c3        1 MOL      0.494797
     74 C25         2.5360   -6.0560    0.4110 c3        1 MOL     -0.575177
     75 O14         1.4460   -4.2120    1.3890 oh        1 MOL     -0.554362
     76 H29         2.4250   -2.4710   -0.9510 hn        1 MOL      0.277602
     77 H30         1.1540   -4.9680   -1.7900 h1        1 MOL      0.016530
     78 H31         0.3890   -5.5900    0.2720 h1        1 MOL     -0.099027
     79 H32         0.9560   -4.7220    2.0340 ho        1 MOL      0.378003
     80 H33         2.8710   -6.3140   -0.5980 hc        1 MOL      0.141995
     81 H34         3.2960   -5.4470    0.9020 hc        1 MOL      0.141995
     82 H35         2.3280   -6.8620    1.1100 hc        1 MOL      0.141995
     83 N9         -1.2060   -4.0970   -1.1450 n         1 MOL     -0.383259
     84 C26        -2.5390   -3.5830   -0.8880 c3        1 MOL     -0.053650
     85 C27        -2.8140   -3.6210    0.6260 c         1 MOL      0.470331
     86 O15        -2.6740   -4.6800    1.2530 o         1 MOL     -0.575512
     87 C28        -3.6600   -4.3020   -1.7490 c3        1 MOL      0.179289
     88 C29        -5.1520   -3.8160   -1.5720 c3        1 MOL      0.129654
     89 C30        -3.3450   -4.1710   -3.2440 c3        1 MOL     -0.205679
     90 C31        -6.2330   -4.3060   -2.5600 c3        1 MOL     -0.260611
     91 H36        -1.1680   -5.0480   -1.4760 hn        1 MOL      0.276291
     92 H37        -2.5450   -2.5470   -1.2460 h1        1 MOL      0.150138
     93 H38        -3.6350   -5.3470   -1.4270 hc        1 MOL     -0.028308
     94 H39        -5.0490   -2.7310   -1.6790 hc        1 MOL     -0.049759
     95 H40        -5.2630   -3.9720   -0.5020 hc        1 MOL     -0.049759
     96 H41        -3.9600   -4.8570   -3.8430 hc        1 MOL      0.038408
     97 H42        -3.3940   -3.1960   -3.7250 hc        1 MOL      0.038408
     98 H43        -2.3110   -4.5140   -3.3850 hc        1 MOL      0.038408
     99 H44        -6.1460   -3.8350   -3.5370 hc        1 MOL      0.063134
    100 H45        -6.1980   -5.3960   -2.6200 hc        1 MOL      0.063134
    101 H46        -7.1680   -3.9700   -2.1300 hc        1 MOL      0.063134
    102 N10        -3.2260   -2.5440    1.2760 n         1 MOL     -0.148678
    103 C32        -3.8400   -2.5450    2.6030 c3        1 MOL     -0.097872
    104 C33        -5.1470   -1.7470    2.6910 c         1 MOL      0.496353
    105 O16        -5.8130   -1.7720    3.6580 o         1 MOL     -0.526449
    106 C34        -2.7420   -2.2120    3.5820 c3        1 MOL     -0.133179
    107 C35        -2.1400   -0.8600    3.2940 c         1 MOL      0.683090
    108 O17        -0.9440   -0.7110    2.9280 o         1 MOL     -0.739598
    109 O18        -2.7020    0.2180    3.5490 o         1 MOL     -0.739598
    110 H47        -3.5560   -1.8300    0.6420 hn        1 MOL      0.198841
    111 H48        -4.1120   -3.5750    2.8520 h1        1 MOL      0.099647
    112 H49        -1.9150   -2.9050    3.4520 hc        1 MOL      0.070684
    113 H50        -3.0450   -2.2740    4.6300 hc        1 MOL      0.070684
    114 N11        -5.5480   -1.0140    1.6580 n         1 MOL     -0.504342
    115 C36        -6.8400   -0.4930    1.4020 c3        1 MOL      0.138974
    116 C37        -6.9240    0.7770    0.5740 c         1 MOL      0.109076
    117 O19        -7.5830    0.7550   -0.4780 o         1 MOL     -0.315131
    118 C38        -7.7130   -1.6600    0.8350 c3        1 MOL     -0.089390
    119 C39        -9.1230   -1.4500    0.5120 ca        1 MOL      0.107371
    120 C40        -9.7300   -2.1300   -0.5690 ca        1 MOL     -0.204917
    121 C41        -9.8980   -0.5660    1.2810 ca        1 MOL     -0.204917
    122 C42       -11.1290   -1.9170   -0.8170 ca        1 MOL     -0.085011
    123 C43       -11.3030   -0.2960    0.9280 ca        1 MOL     -0.085011
    124 C44       -11.8890   -0.9750   -0.0690 ca        1 MOL     -0.163442
    125 H51        -4.9040   -0.8340    0.9040 hn        1 MOL      0.390537
    126 H52        -7.1820   -0.2040    2.4010 h1        1 MOL      0.061375
    127 H53        -7.8740   -2.4740    1.5340 hc        1 MOL      0.072704
    128 H54        -7.2030   -2.1620    0.0040 hc        1 MOL      0.072704
    129 H55        -9.1810   -2.8830   -1.1170 ha        1 MOL      0.123943
    130 H56        -9.4090    0.0180    2.0490 ha        1 MOL      0.123943
    131 H57       -11.6160   -2.5390   -1.5470 ha        1 MOL      0.094102
    132 H58       -11.8720    0.3930    1.5240 ha        1 MOL      0.094102
    133 H59       -12.9230   -0.7770   -0.2890 ha        1 MOL      0.107159
    134 N12        -6.3160    1.8880    0.9400 n         1 MOL      0.016084
    135 C45        -6.2090    3.1380    0.2010 c3        1 MOL     -0.102395
    136 C46        -5.9880    2.9040   -1.3530 c         1 MOL      0.153603
    137 O20        -6.4080    3.6700   -2.1830 o         1 MOL     -0.476518
    138 C47        -5.0740    3.9410    0.8030 c3        1 MOL      0.027718
    139 C48        -5.0850    3.4570    2.2620 c3        1 MOL     -0.338679
    140 C49        -5.3450    1.9700    2.0470 c3        1 MOL      0.068488
    141 H60        -7.1480    3.6380    0.4380 h1        1 MOL      0.099070
    142 H61        -4.1610    3.5640    0.3380 hc        1 MOL      0.074820
    143 H62        -5.0830    5.0290    0.6770 hc        1 MOL      0.074820
    144 H63        -4.0930    3.5410    2.7050 hc        1 MOL      0.093043
    145 H64        -5.8710    3.9140    2.8640 hc        1 MOL      0.093043
    146 H65        -4.4160    1.5040    1.7270 h1        1 MOL      0.053755
    147 H66        -5.6540    1.5420    3.0080 h1        1 MOL      0.053755
    148 N13        -5.3500    1.8590   -1.7480 n         1 MOL      0.062270
    149 C50        -4.9310    1.6620   -3.1690 c3        1 MOL     -0.409598
    150 C51        -6.1230    1.3740   -4.0530 c         1 MOL      0.567662
    151 O21        -6.1610    1.6470   -5.2500 o         1 MOL     -0.567679
    152 C52        -3.7760    0.6160   -3.3310 c3        1 MOL      0.166732
    153 C53        -2.5840    0.5310   -2.3880 c3        1 MOL     -0.214013
    154 C54        -2.9350    0.3790   -0.8540 c         1 MOL      0.667148
    155 O22        -2.3080    1.0280    0.0110 o         1 MOL     -0.765446
    156 O23        -3.9400   -0.3530   -0.5640 o         1 MOL     -0.765446
    157 H67        -5.0660    1.2020   -1.0300 hn        1 MOL      0.276278
    158 H68        -4.4510    2.6250   -3.3880 h1        1 MOL      0.166713
    159 H69        -3.3540    0.8010   -4.3160 hc        1 MOL      0.003665
    160 H70        -4.2470   -0.3680   -3.3580 hc        1 MOL      0.003665
    161 H71        -2.0390    1.4750   -2.4890 hc        1 MOL      0.066269
    162 H72        -1.9880   -0.2970   -2.7600 hc        1 MOL      0.066269
    163 N14        -7.1810    0.7960   -3.4900 n         1 MOL     -0.136031
    164 C55        -8.4460    0.6290   -4.2360 c3        1 MOL     -0.220890
    165 H73        -9.0320   -0.1710   -3.7830 h1        1 MOL      0.090035
    166 H74        -9.0150    1.5580   -4.2010 h1        1 MOL      0.090035
    167 H75        -8.2260    0.3750   -5.2730 h1        1 MOL      0.090035
    168 H76        -7.1510    0.6560   -2.4860 hn        1 MOL      0.118537
    169 Ca1        -1.0090    1.7460    2.1470 Ca        1 MOL      1.835739
    170 O24         0.8370    1.4650    3.9160 oh        1 MOL     -0.851487
    171 H77         0.5060    1.4720    4.8200 ho        1 MOL      0.409468
    172 H78         1.6960    1.0510    3.9840 ho        1 MOL      0.409468
    173 O25         1.2020    2.7010    1.2220 oh        1 MOL     -0.851487
    174 H79         1.8670    3.3890    1.2210 ho        1 MOL      0.409468
    175 H80         1.6620    1.9240    0.9110 ho        1 MOL      0.409468
    176 O26        -1.7690    4.2830    1.6010 oh        1 MOL     -0.851487
    177 H81        -2.0200    4.8760    0.8890 ho        1 MOL      0.409468
    178 H82        -1.6690    4.8510    2.3660 ho        1 MOL      0.409468
    179 O27         0.4930   -0.0090    0.4250 oh        1 MOL     -0.851487
    180 H83         1.3160    0.1010   -0.0540 ho        1 MOL      0.409468
    181 H84         0.0340   -0.6990   -0.0510 ho        1 MOL      0.409468
    182 O28        -2.0690    2.7080    4.4680 oh        1 MOL     -0.851487
    183 H85        -2.4970    3.4150    4.9540 ho        1 MOL      0.409468
    184 H86        -2.3670    1.9050    4.9010 ho        1 MOL      0.409468
@<TRIPOS>BOND
     1    1    2 1   
     2    1    4 1   
     3    1    5 1   
     4    1    6 1   
     5    2    3 2   
     6    2    7 1   
     7    7    8 1   
     8    7   15 1   
     9    8    9 1   
    10    8   11 1   
    11    8   16 1   
    12    9   10 2   
    13    9   19 1   
    14   11   12 1   
    15   11   17 1   
    16   11   18 1   
    17   12   13 1   
    18   12   14 1   
    19   19   20 1   
    20   19   24 1   
    21   20   21 1   
    22   20   23 1   
    23   20   25 1   
    24   21   22 2   
    25   21   29 1   
    26   23   26 1   
    27   23   27 1   
    28   23   28 1   
    29   29   30 1   
    30   29   37 1   
    31   30   31 1   
    32   30   33 1   
    33   30   38 1   
    34   31   32 2   
    35   31   41 1   
    36   33   34 1   
    37   33   39 1   
    38   33   40 1   
    39   34   35 1   
    40   34   36 1   
    41   41   42 1   
    42   41   45 1   
    43   42   43 1   
    44   42   46 1   
    45   42   47 1   
    46   43   44 2   
    47   43   48 1   
    48   48   49 1   
    49   48   56 1   
    50   49   50 1   
    51   49   52 1   
    52   49   57 1   
    53   50   51 2   
    54   50   62 1   
    55   52   53 1   
    56   52   58 1   
    57   52   59 1   
    58   53   54 1   
    59   53   55 2   
    60   54   60 1   
    61   54   61 1   
    62   62   63 1   
    63   62   66 1   
    64   63   64 1   
    65   63   67 1   
    66   63   68 1   
    67   64   65 2   
    68   64   69 1   
    69   69   70 1   
    70   69   76 1   
    71   70   71 1   
    72   70   73 1   
    73   70   77 1   
    74   71   72 2   
    75   71   83 1   
    76   73   74 1   
    77   73   75 1   
    78   73   78 1   
    79   74   80 1   
    80   74   81 1   
    81   74   82 1   
    82   75   79 1   
    83   83   84 1   
    84   83   91 1   
    85   84   85 1   
    86   84   87 1   
    87   84   92 1   
    88   85   86 2   
    89   85  102 1   
    90   87   88 1   
    91   87   89 1   
    92   87   93 1   
    93   88   90 1   
    94   88   94 1   
    95   88   95 1   
    96   89   96 1   
    97   89   97 1   
    98   89   98 1   
    99   90   99 1   
   100   90  100 1   
   101   90  101 1   
   102  102  103 1   
   103  102  110 1   
   104  103  104 1   
   105  103  106 1   
   106  103  111 1   
   107  104  105 2   
   108  104  114 1   
   109  106  107 1   
   110  106  112 1   
   111  106  113 1   
   112  107  108 1   
   113  107  109 1   
   114  114  115 1   
   115  114  125 1   
   116  115  116 1   
   117  115  118 1   
   118  115  126 1   
   119  116  117 2   
   120  116  134 1   
   121  118  119 1   
   122  118  127 1   
   123  118  128 1   
   124  119  120 ar  
   125  119  121 ar  
   126  120  122 ar  
   127  120  129 1   
   128  121  123 ar  
   129  121  130 1   
   130  122  124 ar  
   131  122  131 1   
   132  123  124 ar  
   133  123  132 1   
   134  124  133 1   
   135  134  135 1   
   136  134  140 1   
   137  135  136 1   
   138  135  138 1   
   139  135  141 1   
   140  136  137 2   
   141  136  148 1   
   142  138  139 1   
   143  138  142 1   
   144  138  143 1   
   145  139  140 1   
   146  139  144 1   
   147  139  145 1   
   148  140  146 1   
   149  140  147 1   
   150  148  149 1   
   151  148  157 1   
   152  149  150 1   
   153  149  152 1   
   154  149  158 1   
   155  150  151 2   
   156  150  163 1   
   157  152  153 1   
   158  152  159 1   
   159  152  160 1   
   160  153  154 1   
   161  153  161 1   
   162  153  162 1   
   163  154  155 1   
   164  154  156 1   
   165  163  164 1   
   166  163  168 1   
   167  164  165 1   
   168  164  166 1   
   169  164  167 1   
   170  170  171 1   
   171  170  172 1   
   172  173  174 1   
   173  173  175 1   
   174  176  177 1   
   175  176  178 1   
   176  179  180 1   
   177  179  181 1   
   178  182  183 1   
   179  182  184 1   
@<TRIPOS>SUBSTRUCTURE
     1 MOL         1 TEMP              0 ****  ****    0 ROOT
