@<TRIPOS>MOLECULE
MOL
  181   177     1     0     0
SMALL
resp


@<TRIPOS>ATOM
      1 C1         -6.0400    6.6410    3.5250 c3        1 MOL     -0.400879
      2 C2         -5.6220    5.1670    3.4520 c         1 MOL      0.664416
      3 O1         -4.6930    4.6860    4.1580 o         1 MOL     -0.581617
      4 H1         -5.9660    7.0900    2.5350 hc        1 MOL      0.112590
      5 H2         -7.0700    6.7100    3.8780 hc        1 MOL      0.112590
      6 H3         -5.3820    7.1720    4.2140 hc        1 MOL      0.112590
      7 N1         -6.0530    4.4020    2.3990 n         1 MOL     -0.630145
      8 C3         -7.2510    4.5860    1.6240 c3        1 MOL      0.154328
      9 C4         -6.9770    5.1380    0.1800 c         1 MOL      0.346251
     10 O2         -7.7540    5.8850   -0.4390 o         1 MOL     -0.566210
     11 C5         -8.0180    3.2690    1.5670 c3        1 MOL     -0.210019
     12 C6         -7.0830    2.0610    1.3670 c         1 MOL      0.837091
     13 O3         -7.1640    1.0510    2.1360 o         1 MOL     -0.798142
     14 O4         -6.2770    2.2030    0.4150 o         1 MOL     -0.798142
     15 H4         -5.3730    3.6910    2.1510 hn        1 MOL      0.396645
     16 H5         -7.9260    5.2940    2.1050 h1        1 MOL      0.069783
     17 H6         -8.8460    3.3300    0.8560 hc        1 MOL      0.050961
     18 H7         -8.4420    3.1110    2.5650 hc        1 MOL      0.050961
     19 N2         -5.8080    4.8750   -0.3690 n         1 MOL     -0.099167
     20 C7         -5.3240    5.2180   -1.6790 c3        1 MOL      0.127178
     21 C8         -5.4710    4.0910   -2.7500 c         1 MOL      0.386494
     22 O5         -5.1850    4.2730   -3.9860 o         1 MOL     -0.528466
     23 C9         -3.8980    5.6750   -1.5150 c3        1 MOL     -0.267993
     24 H8         -5.2000    4.2010    0.0800 hn        1 MOL      0.072012
     25 H9         -5.9060    6.0660   -2.0410 h1        1 MOL      0.067923
     26 H10        -3.8430    6.3730   -0.6730 hc        1 MOL      0.083696
     27 H11        -3.2070    4.8340   -1.3870 hc        1 MOL      0.083696
     28 H12        -3.5870    6.2080   -2.4080 hc        1 MOL      0.083696
     29 N3         -5.9530    2.9160   -2.3350 n         1 MOL     -0.301149
     30 C10        -6.0680    1.7660   -3.2450 c3        1 MOL     -0.071188
     31 C11        -7.1590    0.7390   -2.9370 c         1 MOL      0.487377
     32 O6         -7.4290   -0.1530   -3.6970 o         1 MOL     -0.508124
     33 C12        -4.7130    1.0550   -3.3360 c3        1 MOL      0.017881
     34 C13        -4.0510    0.8290   -1.9420 c         1 MOL      0.732001
     35 O7         -3.3200    1.6900   -1.4490 o         1 MOL     -0.714408
     36 O8         -4.2180   -0.2600   -1.3910 o         1 MOL     -0.714408
     37 H13        -6.2570    2.6930   -1.3990 hn        1 MOL      0.229594
     38 H14        -6.3100    2.0700   -4.2640 h1        1 MOL      0.101061
     39 H15        -3.9280    1.5830   -3.8730 hc        1 MOL      0.009298
     40 H16        -4.8400    0.1210   -3.8830 hc        1 MOL      0.009298
     41 N4         -7.6280    0.7610   -1.6670 n         1 MOL     -0.421270
     42 C14        -8.3950   -0.3470   -1.1400 c3        1 MOL     -0.013124
     43 C15        -7.4940   -1.3610   -0.3990 c         1 MOL      0.538808
     44 O9         -6.5150   -0.9900    0.1950 o         1 MOL     -0.362251
     45 H17        -7.2070    1.4100   -1.0150 hn        1 MOL      0.254645
     46 H18        -8.8970   -0.8450   -1.9700 h1        1 MOL      0.072168
     47 H19        -9.2100    0.0240   -0.5150 h1        1 MOL      0.072168
     48 N5         -7.9600   -2.5930   -0.3030 n         1 MOL     -0.554604
     49 C16        -7.3380   -3.6110    0.6010 c3        1 MOL      0.285038
     50 C17        -6.0120   -4.1730    0.0820 c         1 MOL      0.496463
     51 O10        -5.8530   -4.2800   -1.1260 o         1 MOL     -0.452835
     52 C18        -8.3490   -4.7010    0.6200 c3        1 MOL     -0.389112
     53 C19        -9.5900   -4.3700    1.4360 c         1 MOL      0.696128
     54 N6         -9.4350   -4.3620    2.7800 n         1 MOL     -0.806343
     55 O11       -10.6470   -4.0050    0.8780 o         1 MOL     -0.551419
     56 H20        -8.8200   -2.8530   -0.7790 hn        1 MOL      0.314267
     57 H21        -7.2100   -3.3100    1.6420 h1        1 MOL     -0.067014
     58 H22        -7.8400   -5.4890    1.1670 hc        1 MOL      0.113775
     59 H23        -8.6420   -5.0720   -0.3680 hc        1 MOL      0.113775
     60 H24        -8.5990   -4.6760    3.2460 hn        1 MOL      0.365665
     61 H25       -10.1410   -3.8570    3.2990 hn        1 MOL      0.365665
     62 N7         -5.0400   -4.3930    1.0190 n         1 MOL     -0.506085
     63 C20        -3.5650   -4.5110    0.7670 c3        1 MOL     -0.128271
     64 C21        -2.9980   -3.2310    0.2830 c         1 MOL      0.875206
     65 O12        -3.5500   -2.1600    0.5000 o         1 MOL     -0.775518
     66 H26        -5.3220   -4.1910    1.9680 hn        1 MOL      0.278185
     67 H27        -3.4100   -5.2970    0.0310 h1        1 MOL      0.117123
     68 H28        -3.1330   -4.7220    1.7470 h1        1 MOL      0.117123
     69 N8         -1.9600   -3.1680   -0.5620 n         1 MOL     -0.570895
     70 C22        -0.9880   -4.1310   -0.9870 c3        1 MOL     -0.025165
     71 C23         0.4150   -3.6410   -0.8730 c         1 MOL      0.614690
     72 O13         1.2980   -4.4660   -0.5140 o         1 MOL     -0.580656
     73 C24        -1.2860   -4.8080   -2.3710 c3        1 MOL      0.594755
     74 C25        -0.7150   -6.2070   -2.5500 c3        1 MOL     -0.455132
     75 O14        -2.6900   -4.9590   -2.5680 oh        1 MOL     -0.645154
     76 H29        -1.8500   -2.2570   -0.9640 hn        1 MOL      0.316130
     77 H30        -1.1110   -4.8960   -0.2180 h1        1 MOL      0.003351
     78 H31        -0.8660   -4.1910   -3.1610 h1        1 MOL     -0.074760
     79 H32        -3.0990   -4.1210   -2.3310 ho        1 MOL      0.369311
     80 H33        -1.2960   -6.9350   -1.9940 hc        1 MOL      0.113380
     81 H34        -0.8750   -6.4130   -3.6060 hc        1 MOL      0.113380
     82 H35         0.3620   -6.2400   -2.3310 hc        1 MOL      0.113380
     83 N9          0.8170   -2.4930   -1.3850 n         1 MOL     -0.508673
     84 C26         2.1570   -2.0620   -1.5150 c3        1 MOL      0.002169
     85 C27         2.3380   -0.9400   -0.4730 c         1 MOL      0.714181
     86 O15         1.4980   -0.0230   -0.3630 o         1 MOL     -0.611939
     87 C28         2.5240   -1.6260   -2.9450 c3        1 MOL     -0.079586
     88 C29         2.4290   -2.9110   -3.9030 c3        1 MOL     -0.058359
     89 C30         3.9030   -0.9240   -3.0710 c3        1 MOL     -0.003079
     90 C31         3.5000   -3.9690   -3.7440 c3        1 MOL     -0.067807
     91 H36         0.1620   -1.8430   -1.7850 hn        1 MOL      0.274621
     92 H37         2.8920   -2.8130   -1.2210 h1        1 MOL      0.225585
     93 H38         1.8870   -0.8320   -3.3310 hc        1 MOL      0.053966
     94 H39         2.4710   -2.5520   -4.9290 hc        1 MOL      0.024711
     95 H40         1.4500   -3.3630   -3.7800 hc        1 MOL      0.024711
     96 H41         3.7980    0.0270   -2.5440 hc        1 MOL      0.029849
     97 H42         4.6060   -1.6390   -2.6470 hc        1 MOL      0.029849
     98 H43         4.2560   -0.8240   -4.0990 hc        1 MOL      0.029849
     99 H44         4.4750   -3.6950   -4.1510 hc        1 MOL      0.006683
    100 H45         3.5780   -4.3370   -2.7220 hc        1 MOL      0.006683
    101 H46         3.1730   -4.8500   -4.2950 hc        1 MOL      0.006683
    102 N10         3.3320   -0.8560    0.3720 n         1 MOL     -0.590251
    103 C32         4.5360   -1.7460    0.6720 c3        1 MOL      0.136480
    104 C33         5.8210   -0.9220    0.8000 c         1 MOL      0.621193
    105 O16         5.8080    0.1560    1.3990 o         1 MOL     -0.533821
    106 C34         4.2780   -2.7230    1.8530 c3        1 MOL     -0.237007
    107 C35         3.1970   -2.2280    2.8280 c         1 MOL      0.703944
    108 O17         3.2750   -1.1680    3.4500 o         1 MOL     -0.719481
    109 O18         2.1390   -2.9240    2.9660 o         1 MOL     -0.719481
    110 H47         3.1810   -0.1590    1.0880 hn        1 MOL      0.357843
    111 H48         4.6570   -2.4540   -0.1500 h1        1 MOL     -0.004693
    112 H49         5.1870   -3.0110    2.3870 hc        1 MOL      0.028048
    113 H50         3.9150   -3.6550    1.4420 hc        1 MOL      0.028048
    114 N11         6.8510   -1.4020    0.1040 n         1 MOL     -0.649319
    115 C36         8.2570   -0.9410    0.2980 c3        1 MOL      0.609116
    116 C37         8.9830   -0.7820   -1.1360 c         1 MOL      0.128757
    117 O19         8.5340   -1.4460   -2.1030 o         1 MOL     -0.489103
    118 C38         9.0170   -2.0030    1.0660 c3        1 MOL     -0.197124
    119 C39         8.6770   -2.2040    2.5130 ca        1 MOL      0.006131
    120 C40         8.8480   -1.1210    3.4180 ca        1 MOL     -0.070185
    121 C41         8.2610   -3.4820    2.9310 ca        1 MOL     -0.070185
    122 C42         8.6530   -1.3690    4.7940 ca        1 MOL     -0.150151
    123 C43         8.1390   -3.7750    4.3040 ca        1 MOL     -0.150151
    124 C44         8.3370   -2.7030    5.2030 ca        1 MOL     -0.099921
    125 H51         6.7390   -2.3190   -0.2950 hn        1 MOL      0.301127
    126 H52         8.1850   -0.0020    0.8640 h1        1 MOL     -0.014179
    127 H53        10.0780   -1.7510    1.1450 hc        1 MOL      0.042490
    128 H54         9.0360   -2.9620    0.5600 hc        1 MOL      0.042490
    129 H55         9.1500   -0.1450    3.0560 ha        1 MOL      0.079224
    130 H56         8.1450   -4.3220    2.2600 ha        1 MOL      0.079224
    131 H57         8.8890   -0.5880    5.5020 ha        1 MOL      0.120594
    132 H58         7.9060   -4.7670    4.6610 ha        1 MOL      0.120594
    133 H59         8.3540   -2.9160    6.2670 ha        1 MOL      0.082709
    134 N12         9.9680    0.0740   -1.3410 n         1 MOL      0.096138
    135 C45        10.5130    1.0160   -0.3390 c3        1 MOL     -0.183265
    136 C46         9.5280    2.0050    0.3320 c         1 MOL      0.458165
    137 O20         9.5800    2.2720    1.5610 o         1 MOL     -0.545060
    138 C47        11.4360    1.9170   -1.1670 c3        1 MOL      0.125323
    139 C48        11.9660    0.9750   -2.2310 c3        1 MOL     -0.042091
    140 C49        10.8070    0.1170   -2.5050 c3        1 MOL     -0.241346
    141 H60        11.1470    0.4560    0.3430 h1        1 MOL      0.065315
    142 H61        10.8500    2.7170   -1.6270 hc        1 MOL     -0.012754
    143 H62        12.2810    2.3520   -0.6450 hc        1 MOL     -0.012754
    144 H63        12.4520    1.4190   -3.1070 hc        1 MOL      0.035980
    145 H64        12.6800    0.3550   -1.7040 hc        1 MOL      0.035980
    146 H65        10.2350    0.5990   -3.3030 h1        1 MOL      0.107647
    147 H66        11.1780   -0.8620   -2.8030 h1        1 MOL      0.107647
    148 N13         8.5880    2.4390   -0.5010 n         1 MOL     -0.309562
    149 C50         7.4430    3.2060   -0.0290 c3        1 MOL      0.214156
    150 C51         7.8590    4.6480    0.3880 c         1 MOL      0.352437
    151 O21         8.4440    5.4000   -0.4100 o         1 MOL     -0.571562
    152 C52         6.4090    3.4880   -1.1800 c3        1 MOL      0.102074
    153 C53         5.8520    2.1650   -1.7910 c3        1 MOL     -0.278074
    154 C54         5.3560    2.4640   -3.1980 c         1 MOL      0.804111
    155 O22         4.5940    3.4220   -3.4200 o         1 MOL     -0.751468
    156 O23         5.8020    1.7850   -4.1560 o         1 MOL     -0.751468
    157 H67         8.6960    2.1470   -1.4620 hn        1 MOL      0.319018
    158 H68         6.9350    2.7460    0.8220 h1        1 MOL      0.044307
    159 H69         6.9950    4.0120   -1.9310 hc        1 MOL     -0.004040
    160 H70         5.6120    4.1190   -0.7790 hc        1 MOL     -0.004040
    161 H71         4.9810    1.8160   -1.2500 hc        1 MOL      0.001738
    162 H72         6.7050    1.4890   -1.7660 hc        1 MOL      0.001738
    163 N14         8.0080    4.8990    1.6680 n         1 MOL     -0.305951
    164 C55         7.5900    4.1410    2.9090 c3        1 MOL     -0.294660
    165 H73         6.6640    3.6010    2.7090 h1        1 MOL      0.131743
    166 H74         8.3710    3.4330    3.1840 h1        1 MOL      0.131743
    167 H75         7.4310    4.8430    3.7280 h1        1 MOL      0.131743
    168 H76         8.6460    5.6710    1.8320 hn        1 MOL      0.267041
    169 Ca1        -4.5820    0.1920    1.1880 Ca        1 MOL      1.729456
    170 O24        -3.4370    2.7060    0.8650 oh        1 MOL     -0.789583
    171 H77        -2.7050    3.3090    1.0420 ho        1 MOL      0.395693
    172 H78        -3.3990    2.5520   -0.0780 ho        1 MOL      0.395693
    173 O25        -1.9240    0.2980    1.7350 oh        1 MOL     -0.789583
    174 H79        -1.3530    1.0490    1.9010 ho        1 MOL      0.395693
    175 H80        -1.3290   -0.4550    1.7120 ho        1 MOL      0.395693
    176 O26        -4.3310    1.1310    3.6350 oh        1 MOL     -0.789583
    177 H81        -5.0210    1.5940    4.1090 ho        1 MOL      0.395693
    178 H82        -3.8930    0.5960    4.2990 ho        1 MOL      0.395693
    179 O27        -5.6350   -1.5820    3.0020 oh        1 MOL     -0.789583
    180 H83        -6.5810   -1.6980    2.9210 ho        1 MOL      0.395693
    181 H84        -5.4740   -1.6670    3.9480 ho        1 MOL      0.395693
@<TRIPOS>BOND
     1    1    2 1   
     2    1    4 1   
     3    1    5 1   
     4    1    6 1   
     5    2    3 2   
     6    2    7 1   
     7    7    8 1   
     8    7   15 1   
     9    8    9 1   
    10    8   11 1   
    11    8   16 1   
    12    9   10 2   
    13    9   19 1   
    14   11   12 1   
    15   11   17 1   
    16   11   18 1   
    17   12   13 1   
    18   12   14 1   
    19   19   20 1   
    20   19   24 1   
    21   20   21 1   
    22   20   23 1   
    23   20   25 1   
    24   21   22 2   
    25   21   29 1   
    26   23   26 1   
    27   23   27 1   
    28   23   28 1   
    29   29   30 1   
    30   29   37 1   
    31   30   31 1   
    32   30   33 1   
    33   30   38 1   
    34   31   32 2   
    35   31   41 1   
    36   33   34 1   
    37   33   39 1   
    38   33   40 1   
    39   34   35 1   
    40   34   36 1   
    41   41   42 1   
    42   41   45 1   
    43   42   43 1   
    44   42   46 1   
    45   42   47 1   
    46   43   44 2   
    47   43   48 1   
    48   48   49 1   
    49   48   56 1   
    50   49   50 1   
    51   49   52 1   
    52   49   57 1   
    53   50   51 2   
    54   50   62 1   
    55   52   53 1   
    56   52   58 1   
    57   52   59 1   
    58   53   54 1   
    59   53   55 2   
    60   54   60 1   
    61   54   61 1   
    62   62   63 1   
    63   62   66 1   
    64   63   64 1   
    65   63   67 1   
    66   63   68 1   
    67   64   65 2   
    68   64   69 1   
    69   69   70 1   
    70   69   76 1   
    71   70   71 1   
    72   70   73 1   
    73   70   77 1   
    74   71   72 2   
    75   71   83 1   
    76   73   74 1   
    77   73   75 1   
    78   73   78 1   
    79   74   80 1   
    80   74   81 1   
    81   74   82 1   
    82   75   79 1   
    83   83   84 1   
    84   83   91 1   
    85   84   85 1   
    86   84   87 1   
    87   84   92 1   
    88   85   86 2   
    89   85  102 1   
    90   87   88 1   
    91   87   89 1   
    92   87   93 1   
    93   88   90 1   
    94   88   94 1   
    95   88   95 1   
    96   89   96 1   
    97   89   97 1   
    98   89   98 1   
    99   90   99 1   
   100   90  100 1   
   101   90  101 1   
   102  102  103 1   
   103  102  110 1   
   104  103  104 1   
   105  103  106 1   
   106  103  111 1   
   107  104  105 2   
   108  104  114 1   
   109  106  107 1   
   110  106  112 1   
   111  106  113 1   
   112  107  108 1   
   113  107  109 1   
   114  114  115 1   
   115  114  125 1   
   116  115  116 1   
   117  115  118 1   
   118  115  126 1   
   119  116  117 2   
   120  116  134 1   
   121  118  119 1   
   122  118  127 1   
   123  118  128 1   
   124  119  120 ar  
   125  119  121 ar  
   126  120  122 ar  
   127  120  129 1   
   128  121  123 ar  
   129  121  130 1   
   130  122  124 ar  
   131  122  131 1   
   132  123  124 ar  
   133  123  132 1   
   134  124  133 1   
   135  134  135 1   
   136  134  140 1   
   137  135  136 1   
   138  135  138 1   
   139  135  141 1   
   140  136  137 2   
   141  136  148 1   
   142  138  139 1   
   143  138  142 1   
   144  138  143 1   
   145  139  140 1   
   146  139  144 1   
   147  139  145 1   
   148  140  146 1   
   149  140  147 1   
   150  148  149 1   
   151  148  157 1   
   152  149  150 1   
   153  149  152 1   
   154  149  158 1   
   155  150  151 2   
   156  150  163 1   
   157  152  153 1   
   158  152  159 1   
   159  152  160 1   
   160  153  154 1   
   161  153  161 1   
   162  153  162 1   
   163  154  155 1   
   164  154  156 1   
   165  163  164 1   
   166  163  168 1   
   167  164  165 1   
   168  164  166 1   
   169  164  167 1   
   170  170  171 1   
   171  170  172 1   
   172  173  174 1   
   173  173  175 1   
   174  176  177 1   
   175  176  178 1   
   176  179  180 1   
   177  179  181 1   
@<TRIPOS>SUBSTRUCTURE
     1 MOL         1 TEMP              0 ****  ****    0 ROOT
