@<TRIPOS>MOLECULE
MOL
  189   185     1     0     0
SMALL
resp


@<TRIPOS>ATOM
      1 C1         -4.4000   -4.8520   -3.7680 c3        1 MOL     -0.412420
      2 C2         -5.0690   -4.0720   -2.6270 c         1 MOL      0.796383
      3 O1         -4.5250   -3.9200   -1.5170 o         1 MOL     -0.684523
      4 H1         -3.7760   -4.1760   -4.3520 hc        1 MOL      0.107588
      5 H2         -3.7830   -5.6480   -3.3520 hc        1 MOL      0.107588
      6 H3         -5.1670   -5.2850   -4.4100 hc        1 MOL      0.107588
      7 N1         -6.2460   -3.4850   -2.8780 n         1 MOL     -0.595166
      8 C3         -6.8720   -2.3750   -2.0840 c3        1 MOL      0.268223
      9 C4         -5.8730   -1.2440   -1.7640 c         1 MOL      0.284513
     10 O2         -5.4540   -1.0300   -0.6310 o         1 MOL     -0.550200
     11 C5         -7.6830   -2.8060   -0.8710 c3        1 MOL     -0.258025
     12 C6         -7.1310   -3.9780   -0.0690 c         1 MOL      0.818409
     13 O3         -6.1530   -3.8230    0.6390 o         1 MOL     -0.741632
     14 O4         -7.8230   -4.9800   -0.0680 o         1 MOL     -0.741632
     15 H4         -6.5540   -3.6080   -3.8340 hn        1 MOL      0.292648
     16 H5         -7.6660   -2.0460   -2.7520 h1        1 MOL      0.035294
     17 H6         -8.6400   -3.1690   -1.2430 hc        1 MOL      0.054068
     18 H7         -7.9130   -2.0020   -0.1660 hc        1 MOL      0.054068
     19 N2         -5.4600   -0.5040   -2.8140 n         1 MOL     -0.555419
     20 C7         -4.8540    0.7900   -2.8940 c3        1 MOL      0.414721
     21 C8         -5.6020    1.8700   -2.0390 c         1 MOL      0.274599
     22 O5         -5.9500    2.8240   -2.6770 o         1 MOL     -0.557279
     23 C9         -3.4000    0.6440   -2.4640 c3        1 MOL      0.121652
     24 C10        -2.6710    1.9720   -2.6130 c3        1 MOL     -0.045288
     25 C11        -2.6690   -0.4430   -3.2430 c3        1 MOL     -0.342884
     26 C12        -2.7090    2.5670   -3.9890 c3        1 MOL     -0.457524
     27 H8         -5.7970   -0.8470   -3.7080 hn        1 MOL      0.269320
     28 H9         -4.8710    1.0920   -3.9390 h1        1 MOL     -0.002788
     29 H10        -3.2190    0.3280   -1.4410 hc        1 MOL      0.011649
     30 H11        -1.6290    1.8900   -2.2930 hc        1 MOL      0.085054
     31 H12        -3.1130    2.7360   -1.9850 hc        1 MOL      0.085054
     32 H13        -1.5960   -0.3280   -3.1030 hc        1 MOL      0.067196
     33 H14        -2.7690   -1.4570   -2.8650 hc        1 MOL      0.067196
     34 H15        -2.8310   -0.3620   -4.3260 hc        1 MOL      0.067196
     35 H16        -2.1410    3.5000   -3.9060 hc        1 MOL      0.102897
     36 H17        -2.1680    1.9590   -4.7210 hc        1 MOL      0.102897
     37 H18        -3.6990    2.9360   -4.2560 hc        1 MOL      0.102897
     38 N3         -6.0040    1.7740   -0.7780 n         1 MOL     -0.091812
     39 C13        -6.7780    2.8900   -0.1300 c3        1 MOL      0.115951
     40 C14        -6.0390    4.2400   -0.0150 c         1 MOL      0.611764
     41 O6         -6.6370    5.2460   -0.4290 o         1 MOL     -0.564605
     42 C15        -7.5470    2.3670    1.0800 c3        1 MOL     -0.316756
     43 C16        -8.6090    3.3860    1.6310 c         1 MOL      0.714403
     44 O7         -9.6220    3.5780    0.8260 o         1 MOL     -0.716007
     45 O8         -8.4760    4.0140    2.6990 o         1 MOL     -0.716007
     46 H19        -5.6670    0.9920   -0.2360 hn        1 MOL      0.218381
     47 H20        -7.5610    3.1160   -0.8600 h1        1 MOL      0.034190
     48 H21        -6.9200    2.1230    1.9330 hc        1 MOL      0.051609
     49 H22        -8.1410    1.5170    0.7380 hc        1 MOL      0.051609
     50 N4         -4.8610    4.3310    0.5720 n         1 MOL     -0.550351
     51 C17        -4.1040    3.2330    1.2330 c3        1 MOL      0.164041
     52 C18        -3.1110    3.7480    2.2480 c         1 MOL      0.651233
     53 O9         -2.9680    4.9480    2.4770 o         1 MOL     -0.592580
     54 H23        -4.3590    5.1980    0.6410 hn        1 MOL      0.279936
     55 H24        -3.5280    2.7370    0.4460 h1        1 MOL      0.026794
     56 H25        -4.7450    2.4990    1.7140 h1        1 MOL      0.026794
     57 N5         -2.5190    2.8930    3.0850 n         1 MOL     -0.678476
     58 C19        -2.4090    1.3890    3.2110 c3        1 MOL      0.518359
     59 C20        -2.4790    0.5790    1.8850 c         1 MOL      0.254084
     60 O10        -3.4650   -0.0370    1.4710 o         1 MOL     -0.596864
     61 C21        -3.4540    0.9320    4.2830 c3        1 MOL     -0.599815
     62 C22        -3.2880   -0.4540    4.8080 c         1 MOL      0.842573
     63 O11        -4.2370   -1.0910    5.2730 o         1 MOL     -0.704748
     64 O12        -2.1820   -0.9810    4.6140 o         1 MOL     -0.704748
     65 H26        -2.2120    3.3130    3.9410 hn        1 MOL      0.309190
     66 H27        -1.4350    1.1220    3.6210 h1        1 MOL     -0.005997
     67 H28        -4.4610    1.1480    3.9320 hc        1 MOL      0.140375
     68 H29        -3.3830    1.6620    5.0860 hc        1 MOL      0.140375
     69 N6         -1.4540    0.6530    1.0340 n         1 MOL     -0.064471
     70 C23        -0.1410    1.2990    1.1660 c3        1 MOL     -0.244353
     71 C24         0.1000    2.5900    0.3280 c         1 MOL      0.519278
     72 O13        -0.8690    3.2700    0.0200 o         1 MOL     -0.542360
     73 H30        -1.5930   -0.0150    0.2960 hn        1 MOL      0.123010
     74 H31         0.6210    0.5700    0.8970 h1        1 MOL      0.094216
     75 H32        -0.0210    1.6300    2.1910 h1        1 MOL      0.094216
     76 N7          1.3970    2.9480    0.1020 n         1 MOL     -0.419749
     77 C25         1.7520    4.2980   -0.4010 c3        1 MOL      0.082727
     78 C26         2.5090    4.2530   -1.6670 c         1 MOL      0.389569
     79 O14         2.6380    5.2710   -2.3340 o         1 MOL     -0.491745
     80 C27         2.5130    4.9870    0.6670 c3        1 MOL     -0.048451
     81 C28         1.8170    5.2720    2.0310 c3        1 MOL     -0.085361
     82 C29         0.8690    6.4680    1.8320 c         1 MOL      0.652741
     83 N8         -0.3190    6.2120    1.5550 n         1 MOL     -0.737880
     84 O15         1.1900    7.6270    1.9390 o         1 MOL     -0.608253
     85 H33         2.1420    2.2930    0.3020 hn        1 MOL      0.279788
     86 H34         0.8210    4.8350   -0.5570 h1        1 MOL      0.118570
     87 H35         2.7200    6.0160    0.3720 hc        1 MOL      0.019577
     88 H36         3.4280    4.4490    0.8910 hc        1 MOL      0.019577
     89 H37         2.5210    5.6010    2.7990 hc        1 MOL      0.018126
     90 H38         1.3060    4.3870    2.4110 hc        1 MOL      0.018126
     91 H39        -0.6690    5.2860    1.3860 hn        1 MOL      0.373334
     92 H40        -0.9340    6.9950    1.7110 hn        1 MOL      0.373334
     93 N9          2.9670    3.0550   -2.0760 n         1 MOL     -0.368425
     94 C30         3.4930    2.7300   -3.3920 c3        1 MOL     -0.035977
     95 C31         4.8090    2.0580   -3.4010 c         1 MOL      0.611703
     96 O16         5.3720    1.8390   -4.4800 o         1 MOL     -0.546117
     97 C32         2.4570    1.8690   -4.1300 c3        1 MOL      0.284670
     98 C33         1.0320    2.5180   -4.3030 c3        1 MOL     -0.290175
     99 C34         2.2940    0.3940   -3.5960 c3        1 MOL     -0.290175
    100 H41         2.7530    2.2450   -1.5170 hn        1 MOL      0.227479
    101 H42         3.6730    3.6120   -4.0180 h1        1 MOL      0.095761
    102 H43         2.8960    1.8260   -5.1290 hc        1 MOL     -0.029161
    103 H44         0.4030    2.6270   -3.4180 hc        1 MOL      0.072235
    104 H45         1.1620    3.3600   -4.9730 hc        1 MOL      0.072235
    105 H46         0.4560    1.8610   -4.9620 hc        1 MOL      0.072235
    106 H47         1.9010   -0.1880   -4.4210 hc        1 MOL      0.072235
    107 H48         3.2400   -0.0890   -3.3580 hc        1 MOL      0.072235
    108 H49         1.5760    0.3560   -2.7780 hc        1 MOL      0.072235
    109 N10         5.3410    1.6430   -2.2160 n         1 MOL     -0.447496
    110 C35         6.7640    1.2190   -1.9980 c3        1 MOL     -0.018446
    111 C36         6.9800   -0.1640   -1.2640 c         1 MOL      0.682872
    112 O17         7.9470   -0.9280   -1.4930 o         1 MOL     -0.568425
    113 C37         7.4660    2.3060   -1.1280 c3        1 MOL     -0.320611
    114 C38         7.2920    3.7340   -1.5570 c         1 MOL      0.675443
    115 N11         6.6310    4.5230   -0.7180 n         1 MOL     -0.807654
    116 O18         7.8020    4.2180   -2.6470 o         1 MOL     -0.552505
    117 H50         4.7460    1.8450   -1.4350 hn        1 MOL      0.209568
    118 H51         7.2180    1.0910   -2.9760 h1        1 MOL      0.120936
    119 H52         8.5360    2.0840   -1.1270 hc        1 MOL      0.104868
    120 H53         7.2010    2.1680   -0.0780 hc        1 MOL      0.104868
    121 H54         6.3190    4.0590    0.1260 hn        1 MOL      0.382653
    122 H55         6.3530    5.4600   -0.9790 hn        1 MOL      0.382653
    123 N12         5.9910   -0.5280   -0.4220 n         1 MOL     -0.652908
    124 C39         6.0420   -1.6420    0.5040 c3        1 MOL      0.286217
    125 C40         4.6430   -2.3870    0.6310 c         1 MOL      0.600830
    126 O19         3.6320   -1.7730    0.4660 o         1 MOL     -0.579936
    127 C41         6.4580   -1.2090    1.9380 c3        1 MOL     -0.050882
    128 C42         7.8290   -0.5180    2.0810 ca        1 MOL     -0.043633
    129 C43         7.8110    0.8690    2.2620 ca        1 MOL     -0.111234
    130 C44         9.0360   -1.2630    1.8480 ca        1 MOL     -0.111234
    131 C45         9.0470    1.5870    2.0860 ca        1 MOL     -0.260596
    132 C46        10.2260   -0.5310    1.6980 ca        1 MOL     -0.260596
    133 C47        10.2560    0.8690    1.7740 ca        1 MOL      0.360297
    134 O20        11.4600    1.4920    1.8550 oh        1 MOL     -0.531200
    135 H56         5.2540    0.1350   -0.2020 hn        1 MOL      0.306348
    136 H57         6.7120   -2.4510    0.2210 h1        1 MOL      0.009835
    137 H58         6.5110   -2.1600    2.4680 hc        1 MOL      0.044800
    138 H59         5.7450   -0.5880    2.4890 hc        1 MOL      0.044800
    139 H60         6.8570    1.3530    2.4260 ha        1 MOL      0.125803
    140 H61         9.0470   -2.3380    1.9060 ha        1 MOL      0.125803
    141 H62         9.1960    2.6470    2.2160 ha        1 MOL      0.128851
    142 H63        11.1610   -1.0270    1.4880 ha        1 MOL      0.128851
    143 H64        12.2340    0.9080    1.8540 ho        1 MOL      0.382825
    144 N13         4.6950   -3.6290    0.9700 n         1 MOL     -0.678883
    145 C48         3.6460   -4.5290    1.4720 c3        1 MOL      0.433698
    146 C49         2.6100   -4.8780    0.3890 c         1 MOL      0.268281
    147 O21         1.8120   -5.7830    0.6130 o         1 MOL     -0.493420
    148 C50         3.0130   -4.1350    2.8640 c3        1 MOL     -0.167105
    149 C51         4.0660   -4.2730    4.0390 c3        1 MOL     -0.239072
    150 C52         3.4530   -3.7820    5.3860 c         1 MOL      0.734519
    151 O22         2.5650   -4.5240    5.8770 o         1 MOL     -0.723192
    152 O23         3.9720   -2.8370    5.9550 o         1 MOL     -0.723192
    153 H65         5.6160   -4.0210    0.9180 hn        1 MOL      0.302873
    154 H66         4.0650   -5.5250    1.6210 h1        1 MOL     -0.008799
    155 H67         2.0800   -4.6590    3.0580 hc        1 MOL      0.095150
    156 H68         2.7390   -3.0970    2.7370 hc        1 MOL      0.095150
    157 H69         4.9720   -3.7450    3.7610 hc        1 MOL      0.020996
    158 H70         4.3460   -5.3310    4.0600 hc        1 MOL      0.020996
    159 N14         2.6030   -4.2430   -0.7810 n         1 MOL     -0.296997
    160 C53         1.6840   -4.1930   -1.8860 c3        1 MOL     -0.059095
    161 C54         2.0630   -5.0860   -3.0990 c         1 MOL      0.441202
    162 O24         1.2730   -5.1130   -3.9980 o         1 MOL     -0.532266
    163 C55         1.3400   -2.6540   -2.1500 c3        1 MOL      0.010523
    164 C56         0.5860   -1.8780   -0.9880 c3        1 MOL      0.362264
    165 C57        -0.8180   -2.4570   -0.7470 c         1 MOL      0.527140
    166 O25        -1.7420   -1.5850   -0.7060 o         1 MOL     -0.609668
    167 O26        -1.0870   -3.6210   -0.3660 o         1 MOL     -0.609668
    168 H71         3.3440   -3.5560   -0.9100 hn        1 MOL      0.198709
    169 H72         0.7260   -4.6320   -1.5950 h1        1 MOL      0.140005
    170 H73         0.8000   -2.4210   -3.0580 hc        1 MOL     -0.031638
    171 H74         2.2920   -2.1330   -2.2370 hc        1 MOL     -0.031638
    172 H75         0.5620   -0.8020   -1.2120 hc        1 MOL     -0.099623
    173 H76         1.1900   -2.0460   -0.1020 hc        1 MOL     -0.099623
    174 N15         3.2090   -5.6990   -3.0930 n         1 MOL     -0.174449
    175 C58         3.6470   -6.5970   -4.0880 c3        1 MOL     -0.148770
    176 H77         4.3430   -6.0890   -4.7550 h1        1 MOL      0.071603
    177 H78         4.1470   -7.4450   -3.6190 h1        1 MOL      0.071603
    178 H79         2.7900   -6.9520   -4.6610 h1        1 MOL      0.071603
    179 H80         3.8440   -5.3690   -2.3810 hn        1 MOL      0.188099
    180 Ca1        -3.7870   -2.6280    0.6550 Ca        1 MOL      1.765185
    181 O27        -1.9130   -2.5020    2.4900 oh        1 MOL     -0.860106
    182 H81        -1.2530   -3.1960    2.4770 ho        1 MOL      0.417112
    183 H82        -1.8700   -2.1480    3.3770 ho        1 MOL      0.417112
    184 O28        -3.3660   -4.8350    1.9240 oh        1 MOL     -0.860106
    185 H83        -2.7770   -5.2250    2.5630 ho        1 MOL      0.417112
    186 H84        -4.0750   -5.4670    1.8200 ho        1 MOL      0.417112
    187 O29        -5.1910   -2.0500    2.8300 oh        1 MOL     -0.860106
    188 H85        -6.0820   -1.7590    2.6570 ho        1 MOL      0.417112
    189 H86        -4.9860   -1.7140    3.7020 ho        1 MOL      0.417112
@<TRIPOS>BOND
     1    1    2 1   
     2    1    4 1   
     3    1    5 1   
     4    1    6 1   
     5    2    3 2   
     6    2    7 1   
     7    7    8 1   
     8    7   15 1   
     9    8    9 1   
    10    8   11 1   
    11    8   16 1   
    12    9   10 2   
    13    9   19 1   
    14   11   12 1   
    15   11   17 1   
    16   11   18 1   
    17   12   13 1   
    18   12   14 1   
    19   19   20 1   
    20   19   27 1   
    21   20   21 1   
    22   20   23 1   
    23   20   28 1   
    24   21   22 2   
    25   21   38 1   
    26   23   24 1   
    27   23   25 1   
    28   23   29 1   
    29   24   26 1   
    30   24   30 1   
    31   24   31 1   
    32   25   32 1   
    33   25   33 1   
    34   25   34 1   
    35   26   35 1   
    36   26   36 1   
    37   26   37 1   
    38   38   39 1   
    39   38   46 1   
    40   39   40 1   
    41   39   42 1   
    42   39   47 1   
    43   40   41 2   
    44   40   50 1   
    45   42   43 1   
    46   42   48 1   
    47   42   49 1   
    48   43   44 1   
    49   43   45 1   
    50   50   51 1   
    51   50   54 1   
    52   51   52 1   
    53   51   55 1   
    54   51   56 1   
    55   52   53 2   
    56   52   57 1   
    57   57   58 1   
    58   57   65 1   
    59   58   59 1   
    60   58   61 1   
    61   58   66 1   
    62   59   60 2   
    63   59   69 1   
    64   61   62 1   
    65   61   67 1   
    66   61   68 1   
    67   62   63 1   
    68   62   64 1   
    69   69   70 1   
    70   69   73 1   
    71   70   71 1   
    72   70   74 1   
    73   70   75 1   
    74   71   72 2   
    75   71   76 1   
    76   76   77 1   
    77   76   85 1   
    78   77   78 1   
    79   77   80 1   
    80   77   86 1   
    81   78   79 2   
    82   78   93 1   
    83   80   81 1   
    84   80   87 1   
    85   80   88 1   
    86   81   82 1   
    87   81   89 1   
    88   81   90 1   
    89   82   83 1   
    90   82   84 2   
    91   83   91 1   
    92   83   92 1   
    93   93   94 1   
    94   93  100 1   
    95   94   95 1   
    96   94   97 1   
    97   94  101 1   
    98   95   96 2   
    99   95  109 1   
   100   97   98 1   
   101   97   99 1   
   102   97  102 1   
   103   98  103 1   
   104   98  104 1   
   105   98  105 1   
   106   99  106 1   
   107   99  107 1   
   108   99  108 1   
   109  109  110 1   
   110  109  117 1   
   111  110  111 1   
   112  110  113 1   
   113  110  118 1   
   114  111  112 2   
   115  111  123 1   
   116  113  114 1   
   117  113  119 1   
   118  113  120 1   
   119  114  115 1   
   120  114  116 2   
   121  115  121 1   
   122  115  122 1   
   123  123  124 1   
   124  123  135 1   
   125  124  125 1   
   126  124  127 1   
   127  124  136 1   
   128  125  126 2   
   129  125  144 1   
   130  127  128 1   
   131  127  137 1   
   132  127  138 1   
   133  128  129 ar  
   134  128  130 ar  
   135  129  131 ar  
   136  129  139 1   
   137  130  132 ar  
   138  130  140 1   
   139  131  133 ar  
   140  131  141 1   
   141  132  133 ar  
   142  132  142 1   
   143  133  134 1   
   144  134  143 1   
   145  144  145 1   
   146  144  153 1   
   147  145  146 1   
   148  145  148 1   
   149  145  154 1   
   150  146  147 2   
   151  146  159 1   
   152  148  149 1   
   153  148  155 1   
   154  148  156 1   
   155  149  150 1   
   156  149  157 1   
   157  149  158 1   
   158  150  151 1   
   159  150  152 1   
   160  159  160 1   
   161  159  168 1   
   162  160  161 1   
   163  160  163 1   
   164  160  169 1   
   165  161  162 2   
   166  161  174 1   
   167  163  164 1   
   168  163  170 1   
   169  163  171 1   
   170  164  165 1   
   171  164  172 1   
   172  164  173 1   
   173  165  166 1   
   174  165  167 1   
   175  174  175 1   
   176  174  179 1   
   177  175  176 1   
   178  175  177 1   
   179  175  178 1   
   180  181  182 1   
   181  181  183 1   
   182  184  185 1   
   183  184  186 1   
   184  187  188 1   
   185  187  189 1   
@<TRIPOS>SUBSTRUCTURE
     1 MOL         1 TEMP              0 ****  ****    0 ROOT
