@<TRIPOS>MOLECULE
MOL
  184   179     1     0     0
SMALL
resp


@<TRIPOS>ATOM
      1 C1         -3.6400    7.2630    1.5700 c3        1 MOL     -0.488121
      2 C2         -3.6670    5.9680    0.7060 c         1 MOL      0.866606
      3 O1         -2.8130    5.6750   -0.1200 o         1 MOL     -0.638294
      4 H1         -2.8360    7.9120    1.2260 hc        1 MOL      0.130490
      5 H2         -4.5940    7.7840    1.4740 hc        1 MOL      0.130490
      6 H3         -3.4730    7.0010    2.6150 hc        1 MOL      0.130490
      7 N1         -4.7910    5.2770    0.6440 n         1 MOL     -0.859348
      8 C3         -5.8270    5.1370    1.6390 c3        1 MOL      0.345081
      9 C4         -7.2470    4.8480    1.0670 c         1 MOL      0.323532
     10 O2         -8.1650    4.7780    1.8830 o         1 MOL     -0.520165
     11 C5         -5.4830    4.0380    2.6520 c3        1 MOL     -0.368533
     12 C6         -5.2140    2.6080    1.9750 c         1 MOL      0.812628
     13 O3         -4.1620    1.9400    2.2050 o         1 MOL     -0.708744
     14 O4         -6.0040    2.3010    1.0510 o         1 MOL     -0.708744
     15 H4         -4.7430    4.5820   -0.0870 hn        1 MOL      0.467161
     16 H5         -5.9190    6.0620    2.2180 h1        1 MOL      0.034962
     17 H6         -6.3480    3.9180    3.3030 hc        1 MOL      0.090510
     18 H7         -4.5930    4.2990    3.2190 hc        1 MOL      0.090510
     19 N2         -7.4270    4.6080   -0.2390 n         1 MOL     -0.229695
     20 C7         -8.6850    4.5330   -0.9390 c3        1 MOL      0.073828
     21 C8         -9.3410    3.1420   -0.7240 c         1 MOL      0.547238
     22 O5        -10.5100    2.9960   -1.0260 o         1 MOL     -0.558559
     23 C9         -8.2460    4.6290   -2.4030 c3        1 MOL     -0.235763
     24 H8         -6.5890    4.4920   -0.7880 hn        1 MOL      0.149694
     25 H9         -9.3290    5.3630   -0.6450 h1        1 MOL      0.072662
     26 H10        -7.7170    3.7350   -2.7020 hc        1 MOL      0.068019
     27 H11        -9.1870    4.6680   -2.9650 hc        1 MOL      0.068019
     28 H12        -7.6250    5.5100   -2.5780 hc        1 MOL      0.068019
     29 N3         -8.5860    2.1170   -0.2170 n         1 MOL     -0.469665
     30 C10        -9.0110    0.6900   -0.2610 c3        1 MOL      0.189291
     31 C11        -8.8290   -0.1430    1.0020 c         1 MOL      0.400749
     32 O6         -9.5820   -1.0650    1.1060 o         1 MOL     -0.491464
     33 C12        -8.3590    0.0280   -1.4610 c3        1 MOL     -0.243790
     34 C13        -6.7720    0.0570   -1.3800 c         1 MOL      0.739052
     35 O7         -6.1050    0.8730   -2.0880 o         1 MOL     -0.713517
     36 O8         -6.2700   -0.6640   -0.4810 o         1 MOL     -0.713517
     37 H13        -7.7260    2.3820    0.2290 hn        1 MOL      0.249258
     38 H14       -10.0790    0.7290   -0.4270 h1        1 MOL      0.072700
     39 H15        -8.5780    0.6650   -2.3170 hc        1 MOL      0.053615
     40 H16        -8.7580   -0.9780   -1.6060 hc        1 MOL      0.053615
     41 N4         -7.8700    0.2590    1.8940 n         1 MOL     -0.271311
     42 C14        -7.8470   -0.4220    3.1770 c3        1 MOL      0.090413
     43 C15        -7.4460   -1.9050    3.0300 c         1 MOL      0.429397
     44 O9         -7.9650   -2.7540    3.7990 o         1 MOL     -0.536466
     45 H17        -7.3110    1.0510    1.6100 hn        1 MOL      0.198843
     46 H18        -8.7350   -0.2580    3.7970 h1        1 MOL      0.039268
     47 H19        -7.0700    0.0080    3.8020 h1        1 MOL      0.039268
     48 N5         -6.6610   -2.3200    2.0060 n         1 MOL     -0.345591
     49 C16        -6.4900   -3.7010    1.6060 c3        1 MOL      0.149971
     50 C17        -5.2190   -4.1000    0.8340 c         1 MOL      0.388797
     51 O10        -4.7830   -5.2190    0.9930 o         1 MOL     -0.494048
     52 C18        -7.7290   -4.0630    0.7630 c3        1 MOL     -0.273630
     53 C19        -7.8480   -5.4920    0.3510 c         1 MOL      0.668733
     54 N6         -7.1620   -5.8000   -0.7230 n         1 MOL     -0.739213
     55 O11        -8.6340   -6.2260    0.8820 o         1 MOL     -0.564861
     56 H20        -6.1770   -1.6860    1.4000 hn        1 MOL      0.154685
     57 H21        -6.5120   -4.3440    2.4890 h1        1 MOL      0.076150
     58 H22        -7.7370   -3.3950   -0.1000 hc        1 MOL      0.104059
     59 H23        -8.6280   -3.8030    1.3220 hc        1 MOL      0.104059
     60 H24        -6.8460   -5.0500   -1.3160 hn        1 MOL      0.332926
     61 H25        -7.1940   -6.7540   -1.0530 hn        1 MOL      0.332926
     62 N7         -4.6570   -3.1310    0.0560 n         1 MOL     -0.242829
     63 C20        -3.4210   -3.4670   -0.6400 c3        1 MOL     -0.271277
     64 C21        -3.1070   -2.4250   -1.7520 c         1 MOL      0.753873
     65 O12        -3.6770   -1.3550   -1.8340 o         1 MOL     -0.644798
     66 H26        -5.0900   -2.2330   -0.1240 hn        1 MOL      0.231659
     67 H27        -3.5590   -4.3340   -1.2860 h1        1 MOL      0.158705
     68 H28        -2.5460   -3.4130    0.0100 h1        1 MOL      0.158705
     69 N8         -2.0320   -2.6610   -2.5020 n         1 MOL     -0.729211
     70 C22        -1.1380   -3.7830   -2.3890 c3        1 MOL      0.031460
     71 C23         0.3780   -3.6650   -2.0000 c         1 MOL      0.661276
     72 O13         0.9790   -4.7170   -1.7150 o         1 MOL     -0.561166
     73 C24        -1.1620   -4.5980   -3.6190 c3        1 MOL      0.482327
     74 C25        -2.4540   -5.2510   -3.8750 c3        1 MOL     -0.438878
     75 O14        -0.9170   -3.8170   -4.7290 oh        1 MOL     -0.677647
     76 H29        -1.9010   -2.0900   -3.3280 hn        1 MOL      0.401891
     77 H30        -1.4640   -4.4890   -1.6180 h1        1 MOL      0.041393
     78 H31        -0.4110   -5.3710   -3.4910 h1        1 MOL     -0.038122
     79 H32        -0.7050   -4.3730   -5.4900 ho        1 MOL      0.418567
     80 H33        -2.2950   -5.7930   -4.8050 hc        1 MOL      0.099542
     81 H34        -2.8400   -5.8490   -3.0550 hc        1 MOL      0.099542
     82 H35        -3.1790   -4.4820   -4.1370 hc        1 MOL      0.099542
     83 N9          0.9650   -2.4650   -1.9160 n         1 MOL     -0.548606
     84 C26         2.3740   -2.2050   -1.3230 c3        1 MOL      0.106018
     85 C27         2.2280   -1.1040   -0.2140 c         1 MOL      0.520703
     86 O15         1.2700   -0.3320   -0.1440 o         1 MOL     -0.543618
     87 C28         3.4340   -1.9480   -2.3720 c3        1 MOL      0.088519
     88 C29         3.1620   -0.6750   -3.1690 c3        1 MOL      0.200113
     89 C30         3.5720   -3.1970   -3.2140 c3        1 MOL     -0.228430
     90 C31         4.2740    0.2980   -3.5390 c3        1 MOL     -0.138972
     91 H36         0.5050   -1.6840   -2.3570 hn        1 MOL      0.211834
     92 H37         2.5710   -3.1760   -0.8520 h1        1 MOL      0.141443
     93 H38         4.3890   -1.8410   -1.8570 hc        1 MOL      0.001252
     94 H39         2.5220   -0.0330   -2.5760 hc        1 MOL     -0.032574
     95 H40         2.6090   -0.7510   -4.1080 hc        1 MOL     -0.032574
     96 H41         4.4310   -3.0920   -3.8840 hc        1 MOL      0.041681
     97 H42         3.8460   -4.0100   -2.5370 hc        1 MOL      0.041681
     98 H43         2.6940   -3.3980   -3.8300 hc        1 MOL      0.041681
     99 H44         4.7710    0.6610   -2.6360 hc        1 MOL      0.019769
    100 H45         5.0020   -0.2940   -4.0830 hc        1 MOL      0.019769
    101 H46         3.9150    1.1060   -4.1800 hc        1 MOL      0.019769
    102 N10         3.1630   -0.8750    0.6640 n         1 MOL     -0.573502
    103 C32         4.3530   -1.7030    0.9520 c3        1 MOL      0.002049
    104 C33         5.7120   -1.0000    0.8170 c         1 MOL      0.763825
    105 O16         5.7730    0.1130    1.1280 o         1 MOL     -0.546738
    106 C34         4.1740   -2.4200    2.3320 c3        1 MOL     -0.066607
    107 C35         2.7220   -2.7710    2.6020 c         1 MOL      0.732694
    108 O17         2.1110   -2.1180    3.5470 o         1 MOL     -0.730157
    109 O18         2.2650   -3.7950    2.0610 o         1 MOL     -0.730157
    110 H47         3.0700   -0.0020    1.1670 hn        1 MOL      0.374612
    111 H48         4.2860   -2.5250    0.2380 h1        1 MOL      0.003163
    112 H49         4.4990   -1.8010    3.1650 hc        1 MOL      0.000434
    113 H50         4.6780   -3.3830    2.3240 hc        1 MOL      0.000434
    114 N11         6.7200   -1.7680    0.3800 n         1 MOL     -0.632684
    115 C36         8.1330   -1.3510    0.3170 c3        1 MOL      0.109871
    116 C37         8.6590   -1.1410   -1.1210 c         1 MOL      0.399599
    117 O19         8.0420   -1.6430   -2.0700 o         1 MOL     -0.481607
    118 C38         8.9650   -2.4830    0.9360 c3        1 MOL     -0.149031
    119 C39         8.5480   -2.9730    2.3120 ca        1 MOL     -0.088789
    120 C40         8.5050   -2.0120    3.3690 ca        1 MOL     -0.016075
    121 C41         8.3620   -4.3200    2.6110 ca        1 MOL     -0.016075
    122 C42         8.4300   -2.4760    4.7230 ca        1 MOL     -0.195155
    123 C43         8.2300   -4.7730    3.9340 ca        1 MOL     -0.195155
    124 C44         8.2140   -3.8610    5.0060 ca        1 MOL     -0.047463
    125 H51         6.5870   -2.7430    0.1600 hn        1 MOL      0.342063
    126 H52         8.2600   -0.4470    0.9160 h1        1 MOL      0.166878
    127 H53        10.0300   -2.2880    0.9460 hc        1 MOL      0.069487
    128 H54         8.8470   -3.2790    0.2110 hc        1 MOL      0.069487
    129 H55         8.6030   -0.9600    3.1140 ha        1 MOL      0.078119
    130 H56         8.6190   -5.0340    1.8320 ha        1 MOL      0.078119
    131 H57         8.4200   -1.7750    5.5450 ha        1 MOL      0.123833
    132 H58         8.3270   -5.8540    4.0340 ha        1 MOL      0.123833
    133 H59         8.1890   -4.2620    6.0150 ha        1 MOL      0.093928
    134 N12         9.7300   -0.3060   -1.3170 n         1 MOL     -0.186226
    135 C45        10.6800    0.3620   -0.3420 c3        1 MOL      0.024112
    136 C46        10.0010    1.4980    0.4470 c         1 MOL      0.403808
    137 O20         9.8440    1.4600    1.6870 o         1 MOL     -0.533892
    138 C47        11.9230    0.8680   -1.1510 c3        1 MOL     -0.038242
    139 C48        11.6990    0.1530   -2.5350 c3        1 MOL     -0.090730
    140 C49        10.1820   -0.0190   -2.6050 c3        1 MOL      0.163117
    141 H60        10.9930   -0.4400    0.3220 h1        1 MOL      0.039641
    142 H61        11.9200    1.9540   -1.2640 hc        1 MOL      0.032703
    143 H62        12.8650    0.6190   -0.6870 hc        1 MOL      0.032703
    144 H63        11.9590    0.7490   -3.4040 hc        1 MOL      0.035730
    145 H64        12.2450   -0.7680   -2.7240 hc        1 MOL      0.035730
    146 H65         9.6670    0.8830   -2.9560 h1        1 MOL     -0.017665
    147 H66         9.9290   -0.8600   -3.2400 h1        1 MOL     -0.017665
    148 N13         9.3790    2.4270   -0.2420 n         1 MOL     -0.449065
    149 C50         8.7080    3.6860    0.2200 c3        1 MOL      0.208426
    150 C51         9.6790    4.7510    0.8360 c         1 MOL      0.377447
    151 O21        10.1570    5.6290    0.0560 o         1 MOL     -0.571442
    152 C52         7.9120    4.3310   -0.9400 c3        1 MOL     -0.023027
    153 C53         6.5940    3.6020   -1.2110 c3        1 MOL     -0.168020
    154 C54         5.6310    4.2880   -2.2380 c         1 MOL      0.785808
    155 O22         5.7680    4.0750   -3.4660 o         1 MOL     -0.750306
    156 O23         4.7500    4.9960   -1.8090 o         1 MOL     -0.750306
    157 H67         9.3720    2.2800   -1.2450 hn        1 MOL      0.356493
    158 H68         8.0510    3.4120    1.0380 h1        1 MOL      0.051746
    159 H69         8.5120    4.4070   -1.8500 hc        1 MOL      0.013164
    160 H70         7.6400    5.3350   -0.6110 hc        1 MOL      0.013164
    161 H71         5.9890    3.5070   -0.3120 hc        1 MOL      0.004091
    162 H72         6.9380    2.6340   -1.5560 hc        1 MOL      0.004091
    163 N14         9.9960    4.8680    2.1410 n         1 MOL     -0.279886
    164 C55         9.5190    4.1420    3.2870 c3        1 MOL     -0.086103
    165 H73         8.8550    3.3420    2.9590 h1        1 MOL      0.066212
    166 H74        10.3650    3.7130    3.8240 h1        1 MOL      0.066212
    167 H75         8.9740    4.8180    3.9450 h1        1 MOL      0.066212
    168 H76        10.5560    5.6770    2.3780 hn        1 MOL      0.254726
    169 Ca1        -4.0560    0.9690   -0.3240 Ca        1 MOL      1.706193
    170 O24        -4.7350    3.5280   -1.8200 oh        1 MOL     -0.797447
    171 H77        -4.3310    4.3150   -2.1850 ho        1 MOL      0.401636
    172 H78        -5.0180    3.0280   -2.5810 ho        1 MOL      0.401636
    173 O25        -3.7160   -1.1080    1.6440 oh        1 MOL     -0.797447
    174 H79        -4.0700   -1.4300    2.4760 ho        1 MOL      0.401636
    175 H80        -2.7740   -1.2050    1.7300 ho        1 MOL      0.401636
    176 O26        -2.2970    2.8610    0.0230 oh        1 MOL     -0.797447
    177 H81        -2.3270    3.4330   -0.7400 ho        1 MOL      0.401636
    178 H82        -1.4020    2.9440    0.3470 ho        1 MOL      0.401636
    179 O27        -2.6460    1.5000   -2.5810 oh        1 MOL     -0.797447
    180 H83        -2.7620    0.9760   -3.3840 ho        1 MOL      0.401636
    181 H84        -1.7430    1.7980   -2.6130 ho        1 MOL      0.401636
    182 O28        -1.5410   -0.2140    0.1500 oh        1 MOL     -0.797447
    183 H85        -1.4780   -1.1220    0.4470 ho        1 MOL      0.401636
    184 H86        -0.6720   -0.0080   -0.1840 ho        1 MOL      0.401636
@<TRIPOS>BOND
     1    1    2 1   
     2    1    4 1   
     3    1    5 1   
     4    1    6 1   
     5    2    3 2   
     6    2    7 1   
     7    7    8 1   
     8    7   15 1   
     9    8    9 1   
    10    8   11 1   
    11    8   16 1   
    12    9   10 2   
    13    9   19 1   
    14   11   12 1   
    15   11   17 1   
    16   11   18 1   
    17   12   13 1   
    18   12   14 1   
    19   19   20 1   
    20   19   24 1   
    21   20   21 1   
    22   20   23 1   
    23   20   25 1   
    24   21   22 2   
    25   21   29 1   
    26   23   26 1   
    27   23   27 1   
    28   23   28 1   
    29   29   30 1   
    30   29   37 1   
    31   30   31 1   
    32   30   33 1   
    33   30   38 1   
    34   31   32 2   
    35   31   41 1   
    36   33   34 1   
    37   33   39 1   
    38   33   40 1   
    39   34   35 1   
    40   34   36 1   
    41   41   42 1   
    42   41   45 1   
    43   42   43 1   
    44   42   46 1   
    45   42   47 1   
    46   43   44 2   
    47   43   48 1   
    48   48   49 1   
    49   48   56 1   
    50   49   50 1   
    51   49   52 1   
    52   49   57 1   
    53   50   51 2   
    54   50   62 1   
    55   52   53 1   
    56   52   58 1   
    57   52   59 1   
    58   53   54 1   
    59   53   55 2   
    60   54   60 1   
    61   54   61 1   
    62   62   63 1   
    63   62   66 1   
    64   63   64 1   
    65   63   67 1   
    66   63   68 1   
    67   64   65 2   
    68   64   69 1   
    69   69   70 1   
    70   69   76 1   
    71   70   71 1   
    72   70   73 1   
    73   70   77 1   
    74   71   72 2   
    75   71   83 1   
    76   73   74 1   
    77   73   75 1   
    78   73   78 1   
    79   74   80 1   
    80   74   81 1   
    81   74   82 1   
    82   75   79 1   
    83   83   84 1   
    84   83   91 1   
    85   84   85 1   
    86   84   87 1   
    87   84   92 1   
    88   85   86 2   
    89   85  102 1   
    90   87   88 1   
    91   87   89 1   
    92   87   93 1   
    93   88   90 1   
    94   88   94 1   
    95   88   95 1   
    96   89   96 1   
    97   89   97 1   
    98   89   98 1   
    99   90   99 1   
   100   90  100 1   
   101   90  101 1   
   102  102  103 1   
   103  102  110 1   
   104  103  104 1   
   105  103  106 1   
   106  103  111 1   
   107  104  105 2   
   108  104  114 1   
   109  106  107 1   
   110  106  112 1   
   111  106  113 1   
   112  107  108 1   
   113  107  109 1   
   114  114  115 1   
   115  114  125 1   
   116  115  116 1   
   117  115  118 1   
   118  115  126 1   
   119  116  117 2   
   120  116  134 1   
   121  118  119 1   
   122  118  127 1   
   123  118  128 1   
   124  119  120 ar  
   125  119  121 ar  
   126  120  122 ar  
   127  120  129 1   
   128  121  123 ar  
   129  121  130 1   
   130  122  124 ar  
   131  122  131 1   
   132  123  124 ar  
   133  123  132 1   
   134  124  133 1   
   135  134  135 1   
   136  134  140 1   
   137  135  136 1   
   138  135  138 1   
   139  135  141 1   
   140  136  137 2   
   141  136  148 1   
   142  138  139 1   
   143  138  142 1   
   144  138  143 1   
   145  139  140 1   
   146  139  144 1   
   147  139  145 1   
   148  140  146 1   
   149  140  147 1   
   150  148  149 1   
   151  148  157 1   
   152  149  150 1   
   153  149  152 1   
   154  149  158 1   
   155  150  151 2   
   156  150  163 1   
   157  152  153 1   
   158  152  159 1   
   159  152  160 1   
   160  153  154 1   
   161  153  161 1   
   162  153  162 1   
   163  154  155 1   
   164  154  156 1   
   165  163  164 1   
   166  163  168 1   
   167  164  165 1   
   168  164  166 1   
   169  164  167 1   
   170  170  171 1   
   171  170  172 1   
   172  173  174 1   
   173  173  175 1   
   174  176  177 1   
   175  176  178 1   
   176  179  180 1   
   177  179  181 1   
   178  182  183 1   
   179  182  184 1   
@<TRIPOS>SUBSTRUCTURE
     1 MOL         1 TEMP              0 ****  ****    0 ROOT
