@<TRIPOS>MOLECULE
MOL
  192   187     1     0     0
SMALL
resp


@<TRIPOS>ATOM
      1 C1          3.5010    6.8450   -1.9050 c3        1 MOL     -0.292980
      2 C2          3.3480    5.3220   -1.6710 c         1 MOL      0.659990
      3 O1          3.1810    4.5460   -2.5900 o         1 MOL     -0.590227
      4 H1          2.6420    7.3650   -1.4820 hc        1 MOL      0.074778
      5 H2          4.4130    7.1980   -1.4210 hc        1 MOL      0.074778
      6 H3          3.5570    7.0460   -2.9740 hc        1 MOL      0.074778
      7 N1          3.4650    4.8880   -0.4070 n         1 MOL     -0.398682
      8 C3          3.4690    3.4560    0.0460 c3        1 MOL     -0.167491
      9 C4          2.1550    2.9030    0.5190 c         1 MOL      0.636868
     10 O2          2.0120    1.7770    0.9260 o         1 MOL     -0.517285
     11 C5          4.5480    3.3190    1.1910 c3        1 MOL     -0.307113
     12 C6          4.2340    4.1470    2.3130 c         1 MOL      0.804143
     13 O3          3.4780    3.7590    3.2530 o         1 MOL     -0.756344
     14 O4          4.8070    5.2490    2.3270 o         1 MOL     -0.756344
     15 H4          3.4350    5.5380    0.3690 hn        1 MOL      0.275829
     16 H5          3.7170    2.9210   -0.8770 h1        1 MOL      0.161917
     17 H6          5.5460    3.4750    0.7970 hc        1 MOL      0.090566
     18 H7          4.5990    2.3030    1.5920 hc        1 MOL      0.090566
     19 N2          1.1050    3.7360    0.5220 n         1 MOL     -0.406723
     20 C7         -0.3540    3.4100    0.6540 c3        1 MOL     -0.043703
     21 C8         -0.8470    3.1070   -0.7400 c         1 MOL      0.579554
     22 O5         -0.5360    3.8550   -1.6730 o         1 MOL     -0.568205
     23 C9         -1.0880    4.6110    1.3450 c3        1 MOL      0.016041
     24 C10        -0.7680    4.7110    2.8230 c3        1 MOL      0.178587
     25 C11        -1.5620    3.8120    3.6530 c3        1 MOL      0.106649
     26 C12        -1.5360    4.2390    5.1290 c3        1 MOL      0.044411
     27 N3         -0.1430    4.3990    5.6720 n4        1 MOL     -0.437021
     28 H8          1.3040    4.7020    0.2840 hn        1 MOL      0.240487
     29 H9         -0.3290    2.5120    1.2610 h1        1 MOL      0.118270
     30 H10        -2.1640    4.6220    1.1920 hc        1 MOL      0.017838
     31 H11        -0.6850    5.4980    0.8460 hc        1 MOL      0.017838
     32 H12        -1.1150    5.6880    3.1540 hc        1 MOL     -0.075744
     33 H13         0.3020    4.6920    3.0260 hc        1 MOL     -0.075744
     34 H14        -1.1870    2.7870    3.5250 hc        1 MOL      0.007301
     35 H15        -2.5520    3.7030    3.2090 hc        1 MOL      0.007301
     36 H16        -2.0630    3.4550    5.6770 hx        1 MOL      0.061740
     37 H17        -2.1590    5.1300    5.2280 hx        1 MOL      0.061740
     38 H18         0.2720    3.4920    5.8280 hn        1 MOL      0.349335
     39 H19         0.4100    4.9870    5.0610 hn        1 MOL      0.349335
     40 H20        -0.1290    4.8240    6.5920 hn        1 MOL      0.349335
     41 N4         -1.6400    2.1120   -1.0310 n         1 MOL     -0.409759
     42 C13        -2.0900    0.9280   -0.3540 c3        1 MOL      0.051459
     43 C14        -2.7570    1.1290    1.0060 c         1 MOL      0.162380
     44 O6         -2.1640    0.7400    2.0070 o         1 MOL     -0.498014
     45 C15        -0.9460   -0.1060   -0.2720 c3        1 MOL     -0.105526
     46 C16        -0.1650   -0.3210   -1.5820 c         1 MOL      0.920433
     47 O7          1.0620   -0.3300   -1.7280 o         1 MOL     -0.848640
     48 O8         -0.8590   -0.5710   -2.6550 o         1 MOL     -0.848640
     49 H21        -1.8000    2.0440   -2.0240 hn        1 MOL      0.246999
     50 H22        -2.8430    0.4200   -0.9580 h1        1 MOL      0.147124
     51 H23        -1.3630   -1.0410    0.1070 hc        1 MOL      0.096735
     52 H24        -0.2770    0.2850    0.4950 hc        1 MOL      0.096735
     53 N5         -3.9260    1.8020    1.1560 n         1 MOL     -0.201099
     54 C17        -4.9170    2.1570    0.1490 c3        1 MOL     -0.024695
     55 C18        -5.7640    3.3180    0.6960 c         1 MOL      0.476980
     56 O9         -5.3670    3.9820    1.6720 o         1 MOL     -0.560742
     57 H25        -4.1950    1.9160    2.1230 hn        1 MOL      0.279238
     58 H26        -5.5510    1.3010   -0.0850 h1        1 MOL      0.037704
     59 H27        -4.4760    2.4340   -0.8040 h1        1 MOL      0.037704
     60 N6         -6.8790    3.6760    0.1210 n         1 MOL     -0.305132
     61 C19        -7.5100    3.0520   -1.0560 c3        1 MOL     -0.045293
     62 C20        -8.0190    1.5980   -0.9320 c         1 MOL      0.494601
     63 O10        -8.2300    1.0850    0.1620 o         1 MOL     -0.464840
     64 C21        -8.5980    4.0350   -1.4840 c3        1 MOL     -0.199571
     65 C22        -9.7150    4.1620   -0.4020 c         1 MOL      0.698870
     66 O11        -9.6130    4.9290    0.5720 o         1 MOL     -0.637020
     67 O12       -10.7820    3.5260   -0.5930 o         1 MOL     -0.637020
     68 H28        -7.3350    4.4230    0.6220 hn        1 MOL      0.255863
     69 H29        -6.9000    3.1370   -1.9550 h1        1 MOL      0.042537
     70 H30        -8.9870    3.6140   -2.4090 hc        1 MOL      0.038042
     71 H31        -8.1670    5.0060   -1.7340 hc        1 MOL      0.038042
     72 N7         -8.0980    0.8960   -2.0240 n         1 MOL     -0.298722
     73 C23        -8.5920   -0.4920   -2.0970 c3        1 MOL     -0.263352
     74 C24        -7.5260   -1.5600   -2.0040 c         1 MOL      0.551607
     75 O13        -7.9200   -2.6660   -1.6920 o         1 MOL     -0.561972
     76 H32        -8.0140    1.3600   -2.9180 hn        1 MOL      0.268625
     77 H33        -9.0750   -0.5680   -3.0720 h1        1 MOL      0.156581
     78 H34        -9.2490   -0.6660   -1.2410 h1        1 MOL      0.156581
     79 N8         -6.2630   -1.2440   -1.9590 n         1 MOL     -0.329351
     80 C25        -5.1500   -2.1120   -1.5810 c3        1 MOL     -0.028234
     81 C26        -4.7470   -1.9640   -0.0870 c         1 MOL      0.602269
     82 O14        -4.9780   -0.8970    0.4570 o         1 MOL     -0.493293
     83 C27        -3.8400   -1.8910   -2.4470 c3        1 MOL      0.451394
     84 C28        -3.9730   -2.2950   -3.9150 c3        1 MOL     -0.296815
     85 O15        -2.8520   -2.7740   -1.9670 oh        1 MOL     -0.555047
     86 H35        -6.0630   -0.2820   -2.1670 hn        1 MOL      0.154158
     87 H36        -5.5600   -3.1050   -1.7650 h1        1 MOL      0.070417
     88 H37        -3.4450   -0.8950   -2.2450 h1        1 MOL     -0.070849
     89 H38        -2.0660   -2.5290   -2.4630 ho        1 MOL      0.274953
     90 H39        -4.5630   -1.5320   -4.4180 hc        1 MOL      0.059261
     91 H40        -2.9900   -2.2660   -4.3930 hc        1 MOL      0.059261
     92 H41        -4.3890   -3.3030   -3.9180 hc        1 MOL      0.059261
     93 N9         -4.2400   -3.0350    0.5250 n         1 MOL     -0.369010
     94 C29        -4.0870   -3.1740    1.9750 c3        1 MOL      0.033255
     95 C30        -2.7120   -3.7880    2.4450 c         1 MOL      0.318784
     96 O16        -2.5050   -4.0990    3.6470 o         1 MOL     -0.530197
     97 C31        -5.3600   -3.9740    2.5140 c3        1 MOL      0.077058
     98 C32        -5.5060   -5.2770    1.6340 c3        1 MOL     -0.045918
     99 C33        -6.6910   -3.2080    2.3830 c3        1 MOL     -0.414042
    100 C34        -6.3810   -6.3760    2.3610 c3        1 MOL     -0.269524
    101 H42        -4.1860   -3.8350   -0.0890 hn        1 MOL      0.184571
    102 H43        -4.1150   -2.1630    2.3930 h1        1 MOL      0.124395
    103 H44        -5.0970   -4.0930    3.5630 hc        1 MOL      0.036310
    104 H45        -4.5130   -5.6720    1.3920 hc        1 MOL      0.047435
    105 H46        -5.9660   -5.0750    0.6730 hc        1 MOL      0.047435
    106 H47        -7.4000   -3.5700    3.1270 hc        1 MOL      0.128339
    107 H48        -6.4340   -2.1820    2.6310 hc        1 MOL      0.128339
    108 H49        -7.2560   -3.1700    1.4420 hc        1 MOL      0.128339
    109 H50        -5.8610   -6.6710    3.2840 hc        1 MOL      0.073695
    110 H51        -7.3160   -5.8930    2.6410 hc        1 MOL      0.073695
    111 H52        -6.6560   -7.2470    1.7780 hc        1 MOL      0.073695
    112 N10        -1.8300   -4.0630    1.5030 n         1 MOL     -0.113948
    113 C35        -0.4250   -4.4980    1.7590 c3        1 MOL     -0.002262
    114 C36         0.5620   -3.5390    1.1140 c         1 MOL      0.658675
    115 O17         0.1560   -2.9120    0.1580 o         1 MOL     -0.731814
    116 C37        -0.2530   -5.9460    1.3420 c3        1 MOL      0.405213
    117 C38        -0.8240   -6.3050   -0.0090 c3        1 MOL     -0.297036
    118 O18        -0.8940   -6.6960    2.2920 oh        1 MOL     -0.659372
    119 H53        -2.0490   -3.6540    0.5990 hn        1 MOL      0.217972
    120 H54        -0.1340   -4.4110    2.8080 h1        1 MOL      0.084008
    121 H55         0.8140   -6.1380    1.2450 h1        1 MOL     -0.009821
    122 H56        -1.7290   -7.0370    1.9680 ho        1 MOL      0.410893
    123 H57        -1.8840   -6.0950   -0.1490 hc        1 MOL      0.058491
    124 H58        -0.3250   -5.7330   -0.8000 hc        1 MOL      0.058491
    125 H59        -0.6270   -7.3510   -0.2370 hc        1 MOL      0.058491
    126 N11         1.7580   -3.4630    1.6180 n         1 MOL     -0.576851
    127 C39         2.6290   -2.3630    1.2350 c3        1 MOL     -0.023288
    128 C40         4.0570   -2.8100    1.0350 c         1 MOL      0.675773
    129 O19         4.4100   -3.8990    1.4640 o         1 MOL     -0.555133
    130 C41         2.6140   -1.2480    2.2640 c3        1 MOL      0.630829
    131 C42         2.9620   -1.5530    3.7630 c3        1 MOL     -0.490132
    132 O20         1.3200   -0.6630    2.3010 oh        1 MOL     -0.593514
    133 H60         1.9340   -3.8710    2.5290 hn        1 MOL      0.306390
    134 H61         2.2900   -1.9440    0.2880 h1        1 MOL      0.124452
    135 H62         3.2780   -0.4180    2.0090 h1        1 MOL     -0.101783
    136 H63         1.2490   -0.0540    1.5610 ho        1 MOL      0.256956
    137 H64         2.8530   -0.7060    4.4350 hc        1 MOL      0.118300
    138 H65         2.2290   -2.3040    4.0860 hc        1 MOL      0.118300
    139 H66         3.9570   -1.9900    3.6910 hc        1 MOL      0.118300
    140 N12         4.9540   -1.9180    0.4890 n         1 MOL     -0.386720
    141 C43         6.4280   -1.9980    0.7010 c3        1 MOL     -0.151190
    142 C44         7.1920   -1.4990   -0.5640 c         1 MOL      0.772668
    143 O21         8.3780   -1.7170   -0.6180 o         1 MOL     -0.597115
    144 C45         6.9090   -1.2710    2.0240 c3        1 MOL      0.088369
    145 C46         8.2560   -1.7700    2.4850 c3        1 MOL      0.127426
    146 C47         8.5230   -1.5140    3.9750 c3        1 MOL     -0.207514
    147 C48         8.5510   -0.0080    4.4920 c3        1 MOL      0.116251
    148 N13         8.5910    0.1930    5.9490 n4        1 MOL     -0.352625
    149 H67         4.5310   -1.0780    0.1150 hn        1 MOL      0.212731
    150 H68         6.7090   -3.0540    0.7700 h1        1 MOL      0.115059
    151 H69         6.2520   -1.4450    2.8810 hc        1 MOL     -0.044996
    152 H70         6.9740   -0.2320    1.6990 hc        1 MOL     -0.044996
    153 H71         8.9870   -1.3370    1.8110 hc        1 MOL      0.000733
    154 H72         8.2840   -2.8490    2.3550 hc        1 MOL      0.000733
    155 H73         9.4810   -1.9910    4.1740 hc        1 MOL      0.067371
    156 H74         7.8370   -2.1750    4.5060 hc        1 MOL      0.067371
    157 H75         7.7610    0.6090    4.0560 hx        1 MOL      0.072269
    158 H76         9.4610    0.4430    4.1130 hx        1 MOL      0.072269
    159 H77         7.7020   -0.0290    6.3820 hn        1 MOL      0.286436
    160 H78         9.3180   -0.3280    6.4370 hn        1 MOL      0.286436
    161 H79         8.7710    1.1710    6.0950 hn        1 MOL      0.286436
    162 N14         6.4430   -0.8200   -1.5250 n         1 MOL     -0.457749
    163 C49         7.0240   -0.4400   -2.7960 c3        1 MOL     -0.111580
    164 C50         7.6140    1.0000   -2.6890 c         1 MOL      0.354825
    165 O22         6.9350    1.9610   -2.5490 o         1 MOL     -0.456131
    166 C51         6.0650   -0.5370   -3.9130 c3        1 MOL      0.109529
    167 C52         5.5430   -1.9440   -4.1630 c3        1 MOL      0.068921
    168 C53         4.4370   -2.2720   -3.1220 c         1 MOL      0.283468
    169 O23         4.5360   -3.3540   -2.5560 o         1 MOL     -0.591738
    170 O24         3.3760   -1.5760   -3.0860 o         1 MOL     -0.591738
    171 H80         5.4970   -0.5560   -1.2990 hn        1 MOL      0.363272
    172 H81         7.8470   -1.1000   -3.0840 h1        1 MOL      0.113355
    173 H82         6.5770   -0.2500   -4.8260 hc        1 MOL     -0.035532
    174 H83         5.2540    0.1780   -3.7430 hc        1 MOL     -0.035532
    175 H84         6.3340   -2.6690   -4.0260 hc        1 MOL     -0.016078
    176 H85         5.0770   -1.9770   -5.1520 hc        1 MOL     -0.016078
    177 N15         8.8670    1.2400   -2.9910 n         1 MOL     -0.184478
    178 C54         9.6660    2.4540   -2.8920 c3        1 MOL     -0.133892
    179 H86         9.1070    3.2140   -2.3460 h1        1 MOL      0.079838
    180 H87        10.5950    2.2370   -2.3640 h1        1 MOL      0.079838
    181 H88         9.8950    2.8220   -3.8930 h1        1 MOL      0.079838
    182 H89         9.4690    0.4750   -3.2490 hn        1 MOL      0.198099
    183 Ca1         1.0410   -1.3400   -4.1850 Ca        1 MOL      1.770430
    184 O25         2.1390   -0.3240   -6.4590 oh        1 MOL     -0.904026
    185 H90         2.1810   -0.6670   -7.3480 ho        1 MOL      0.450332
    186 H91         2.8940    0.2640   -6.3870 ho        1 MOL      0.450332
    187 O26         0.3790   -3.3180   -2.2580 oh        1 MOL     -0.904026
    188 H92         0.9730   -4.0580   -2.1740 ho        1 MOL      0.450332
    189 H93         0.2730   -2.9830   -1.3710 ho        1 MOL      0.450332
    190 O27         2.0710    1.3020   -4.1040 oh        1 MOL     -0.904026
    191 H94         1.6450    2.1610   -4.1200 ho        1 MOL      0.450332
    192 H95         2.9940    1.4930   -3.9670 ho        1 MOL      0.450332
@<TRIPOS>BOND
     1    1    2 1   
     2    1    4 1   
     3    1    5 1   
     4    1    6 1   
     5    2    3 2   
     6    2    7 1   
     7    7    8 1   
     8    7   15 1   
     9    8    9 1   
    10    8   11 1   
    11    8   16 1   
    12    9   10 2   
    13    9   19 1   
    14   11   12 1   
    15   11   17 1   
    16   11   18 1   
    17   12   13 1   
    18   12   14 1   
    19   19   20 1   
    20   19   28 1   
    21   20   21 1   
    22   20   23 1   
    23   20   29 1   
    24   21   22 2   
    25   21   41 1   
    26   23   24 1   
    27   23   30 1   
    28   23   31 1   
    29   24   25 1   
    30   24   32 1   
    31   24   33 1   
    32   25   26 1   
    33   25   34 1   
    34   25   35 1   
    35   26   27 1   
    36   26   36 1   
    37   26   37 1   
    38   27   38 1   
    39   27   39 1   
    40   27   40 1   
    41   41   42 1   
    42   41   49 1   
    43   42   43 1   
    44   42   45 1   
    45   42   50 1   
    46   43   44 2   
    47   43   53 1   
    48   45   46 1   
    49   45   51 1   
    50   45   52 1   
    51   46   47 1   
    52   46   48 1   
    53   53   54 1   
    54   53   57 1   
    55   54   55 1   
    56   54   58 1   
    57   54   59 1   
    58   55   56 2   
    59   55   60 1   
    60   60   61 1   
    61   60   68 1   
    62   61   62 1   
    63   61   64 1   
    64   61   69 1   
    65   62   63 2   
    66   62   72 1   
    67   64   65 1   
    68   64   70 1   
    69   64   71 1   
    70   65   66 1   
    71   65   67 1   
    72   72   73 1   
    73   72   76 1   
    74   73   74 1   
    75   73   77 1   
    76   73   78 1   
    77   74   75 2   
    78   74   79 1   
    79   79   80 1   
    80   79   86 1   
    81   80   81 1   
    82   80   83 1   
    83   80   87 1   
    84   81   82 2   
    85   81   93 1   
    86   83   84 1   
    87   83   85 1   
    88   83   88 1   
    89   84   90 1   
    90   84   91 1   
    91   84   92 1   
    92   85   89 1   
    93   93   94 1   
    94   93  101 1   
    95   94   95 1   
    96   94   97 1   
    97   94  102 1   
    98   95   96 2   
    99   95  112 1   
   100   97   98 1   
   101   97   99 1   
   102   97  103 1   
   103   98  100 1   
   104   98  104 1   
   105   98  105 1   
   106   99  106 1   
   107   99  107 1   
   108   99  108 1   
   109  100  109 1   
   110  100  110 1   
   111  100  111 1   
   112  112  113 1   
   113  112  119 1   
   114  113  114 1   
   115  113  116 1   
   116  113  120 1   
   117  114  115 2   
   118  114  126 1   
   119  116  117 1   
   120  116  118 1   
   121  116  121 1   
   122  117  123 1   
   123  117  124 1   
   124  117  125 1   
   125  118  122 1   
   126  126  127 1   
   127  126  133 1   
   128  127  128 1   
   129  127  130 1   
   130  127  134 1   
   131  128  129 2   
   132  128  140 1   
   133  130  131 1   
   134  130  132 1   
   135  130  135 1   
   136  131  137 1   
   137  131  138 1   
   138  131  139 1   
   139  132  136 1   
   140  140  141 1   
   141  140  149 1   
   142  141  142 1   
   143  141  144 1   
   144  141  150 1   
   145  142  143 2   
   146  142  162 1   
   147  144  145 1   
   148  144  151 1   
   149  144  152 1   
   150  145  146 1   
   151  145  153 1   
   152  145  154 1   
   153  146  147 1   
   154  146  155 1   
   155  146  156 1   
   156  147  148 1   
   157  147  157 1   
   158  147  158 1   
   159  148  159 1   
   160  148  160 1   
   161  148  161 1   
   162  162  163 1   
   163  162  171 1   
   164  163  164 1   
   165  163  166 1   
   166  163  172 1   
   167  164  165 2   
   168  164  177 1   
   169  166  167 1   
   170  166  173 1   
   171  166  174 1   
   172  167  168 1   
   173  167  175 1   
   174  167  176 1   
   175  168  169 1   
   176  168  170 1   
   177  177  178 1   
   178  177  182 1   
   179  178  179 1   
   180  178  180 1   
   181  178  181 1   
   182  184  185 1   
   183  184  186 1   
   184  187  188 1   
   185  187  189 1   
   186  190  191 1   
   187  190  192 1   
@<TRIPOS>SUBSTRUCTURE
     1 MOL         1 TEMP              0 ****  ****    0 ROOT
