@<TRIPOS>MOLECULE
MOL
  178   175     1     0     0
SMALL
resp


@<TRIPOS>ATOM
      1 C1          2.6600   -2.0600    4.0790 c3        1 MOL     -0.320918
      2 C2          3.7800   -1.2950    3.3970 c         1 MOL      0.688019
      3 O1          3.7390   -1.1140    2.2000 o         1 MOL     -0.581481
      4 H1          3.0840   -2.7470    4.8120 hc        1 MOL      0.082049
      5 H2          1.9940   -1.3590    4.5820 hc        1 MOL      0.082049
      6 H3          2.0990   -2.6240    3.3340 hc        1 MOL      0.082049
      7 N1          4.8990   -0.9540    4.0330 n         1 MOL     -0.534179
      8 C3          6.1560   -0.2920    3.5090 c3        1 MOL      0.167892
      9 C4          6.7690   -1.1470    2.3570 c         1 MOL      0.641033
     10 O2          7.2360   -0.5570    1.4210 o         1 MOL     -0.543814
     11 C5          7.0670   -0.1430    4.7510 c3        1 MOL     -0.191052
     12 C6          8.2180    0.7330    4.4300 c         1 MOL      0.698477
     13 O3          9.3640    0.2390    4.5080 o         1 MOL     -0.723386
     14 O4          7.9700    1.9010    4.0140 o         1 MOL     -0.723386
     15 H4          4.8900   -1.0410    5.0370 hn        1 MOL      0.242575
     16 H5          5.8850    0.6770    3.1040 h1        1 MOL      0.044844
     17 H6          7.5180   -1.1120    5.0020 hc        1 MOL     -0.001616
     18 H7          6.4680    0.2660    5.5690 hc        1 MOL     -0.001616
     19 N2          6.8070   -2.4490    2.4540 n         1 MOL     -0.432287
     20 C7          7.3430   -3.3910    1.5090 c3        1 MOL      0.395369
     21 C8          6.6600   -3.3190    0.0980 c         1 MOL      0.242388
     22 O5          7.3050   -3.3200   -0.9420 o         1 MOL     -0.489337
     23 C9          8.8780   -3.5140    1.5910 c3        1 MOL     -0.592548
     24 H8          6.4450   -2.7480    3.3550 hn        1 MOL      0.205676
     25 H9          6.8970   -4.3170    1.8930 h1        1 MOL     -0.003016
     26 H10         9.2450   -4.1680    0.7980 hc        1 MOL      0.155999
     27 H11         9.3340   -2.5430    1.3980 hc        1 MOL      0.155999
     28 H12         9.0870   -3.9060    2.5890 hc        1 MOL      0.155999
     29 N3          5.3740   -3.2050    0.0410 n         1 MOL     -0.226606
     30 C10         4.6560   -2.8050   -1.2090 c3        1 MOL      0.175619
     31 C11         5.2600   -1.6610   -1.9930 c         1 MOL      0.471860
     32 O6          5.4240   -1.6200   -3.2400 o         1 MOL     -0.561751
     33 C12         4.2610   -3.9930   -2.0190 c3        1 MOL     -0.458841
     34 C13         3.4220   -4.9590   -1.1240 c         1 MOL      0.749941
     35 O7          3.8430   -5.8260   -0.3140 o         1 MOL     -0.694230
     36 O8          2.1810   -4.8020   -1.1220 o         1 MOL     -0.694230
     37 H13         4.8570   -3.2060    0.9100 hn        1 MOL      0.239907
     38 H14         3.6970   -2.3840   -0.9230 h1        1 MOL      0.059259
     39 H15         5.1760   -4.5430   -2.2360 hc        1 MOL      0.088490
     40 H16         3.7240   -3.7260   -2.9270 hc        1 MOL      0.088490
     41 N4          5.6030   -0.6400   -1.2180 n         1 MOL     -0.043109
     42 C14         6.1080    0.6960   -1.6860 c3        1 MOL     -0.331156
     43 C15         5.2180    1.5800   -2.4980 c         1 MOL      0.580958
     44 O9          5.7040    2.5980   -3.0030 o         1 MOL     -0.560213
     45 H17         5.4970   -0.8170   -0.2300 hn        1 MOL      0.067499
     46 H18         6.9110    0.3770   -2.3450 h1        1 MOL      0.153952
     47 H19         6.4970    1.2480   -0.8180 h1        1 MOL      0.153952
     48 N5          3.9270    1.2680   -2.5600 n         1 MOL     -0.332780
     49 C16         2.9050    1.7350   -3.5280 c3        1 MOL      0.029165
     50 C17         2.6390    3.2730   -3.6140 c         1 MOL      0.444242
     51 O10         2.4420    3.8060   -4.7200 o         1 MOL     -0.528782
     52 C18         1.5810    0.9720   -3.4340 c3        1 MOL     -0.497539
     53 C19         1.7550   -0.4960   -3.7080 c         1 MOL      0.925462
     54 N6          2.1540   -0.9560   -4.9200 n         1 MOL     -0.973968
     55 O11         1.5360   -1.3560   -2.8440 o         1 MOL     -0.660778
     56 H20         3.5570    0.4790   -2.0490 hn        1 MOL      0.221474
     57 H21         3.3200    1.3730   -4.4700 h1        1 MOL      0.087343
     58 H22         0.7620    1.3720   -4.0340 hc        1 MOL      0.171853
     59 H23         1.0900    0.9970   -2.4620 hc        1 MOL      0.171853
     60 H24         2.6460   -0.3970   -5.5990 hn        1 MOL      0.400717
     61 H25         2.2300   -1.9580   -5.0150 hn        1 MOL      0.400717
     62 N7          2.7120    3.9870   -2.4940 n         1 MOL     -0.164945
     63 C20         2.7860    5.4530   -2.3970 c3        1 MOL     -0.175925
     64 C21         1.4280    6.0230   -2.0270 c         1 MOL      0.689479
     65 O12         0.3980    5.6260   -2.5940 o         1 MOL     -0.519204
     66 H26         2.8340    3.4960   -1.6120 hn        1 MOL      0.220242
     67 H27         3.1380    5.9890   -3.2780 h1        1 MOL      0.091728
     68 H28         3.3870    5.7640   -1.5450 h1        1 MOL      0.091728
     69 N8          1.3860    7.0920   -1.1930 n         1 MOL     -0.570153
     70 C22         0.0970    7.6600   -0.6990 c3        1 MOL     -0.162336
     71 C23        -0.8070    6.7130    0.1320 c         1 MOL      0.361238
     72 O13        -1.9150    7.2230    0.5110 o         1 MOL     -0.533816
     73 C24         0.3600    8.9490    0.0290 c3        1 MOL      0.543379
     74 C25         1.0480    8.7700    1.3440 c3        1 MOL     -0.276726
     75 O14         1.1130    9.7070   -0.8220 oh        1 MOL     -0.680321
     76 H29         2.1610    7.4710   -0.6610 hn        1 MOL      0.288834
     77 H30        -0.4850    7.9280   -1.5820 h1        1 MOL      0.163996
     78 H31        -0.5980    9.4450    0.1680 h1        1 MOL      0.008069
     79 H32         2.0550    9.5180   -0.8420 ho        1 MOL      0.401973
     80 H33         1.7600    7.9560    1.1940 hc        1 MOL      0.051899
     81 H34         1.4620    9.7480    1.5930 hc        1 MOL      0.051899
     82 H35         0.2790    8.4270    2.0350 hc        1 MOL      0.051899
     83 N9         -0.5250    5.3640    0.2030 n         1 MOL     -0.040477
     84 C26        -1.3550    4.3850    0.8690 c3        1 MOL     -0.073996
     85 C27        -1.3380    3.0270    0.1650 c         1 MOL      0.405216
     86 O15        -0.5870    2.8510   -0.8150 o         1 MOL     -0.491632
     87 C28        -0.9320    4.2730    2.3650 c3        1 MOL      0.004182
     88 C29         0.4330    3.5710    2.5460 c3        1 MOL      0.021312
     89 C30        -1.0280    5.5660    3.0720 c3        1 MOL     -0.182664
     90 C31         0.8280    3.2000    4.0080 c3        1 MOL     -0.165953
     91 H36         0.2290    4.9930   -0.3450 hn        1 MOL      0.117011
     92 H37        -2.3980    4.7180    0.8480 h1        1 MOL      0.078854
     93 H38        -1.5710    3.6120    2.9480 hc        1 MOL      0.040791
     94 H39         1.2540    4.0770    2.0470 hc        1 MOL      0.025216
     95 H40         0.4400    2.5860    2.0680 hc        1 MOL      0.025216
     96 H41        -0.2900    6.2320    2.6320 hc        1 MOL      0.051439
     97 H42        -2.0800    5.8510    3.0480 hc        1 MOL      0.051439
     98 H43        -0.8910    5.4550    4.1490 hc        1 MOL      0.051439
     99 H44         1.8170    2.7540    3.9970 hc        1 MOL      0.043708
    100 H45         0.7880    4.1450    4.5420 hc        1 MOL      0.043708
    101 H46         0.0720    2.5300    4.4210 hc        1 MOL      0.043708
    102 N10        -2.1450    2.0890    0.5000 n         1 MOL     -0.285923
    103 C32        -2.1550    0.7500   -0.1250 c3        1 MOL     -0.014890
    104 C33        -3.5490    0.1730   -0.1740 c         1 MOL      0.570945
    105 O16        -3.7790   -1.0020    0.0190 o         1 MOL     -0.478697
    106 C34        -1.1060   -0.1410    0.4960 c3        1 MOL     -0.318436
    107 C35        -0.4940   -1.1630   -0.4880 c         1 MOL      0.776682
    108 O17         0.4860   -1.8300   -0.1770 o         1 MOL     -0.736052
    109 O18        -1.1120   -1.5520   -1.5070 o         1 MOL     -0.736052
    110 H47        -2.7330    2.2600    1.2970 hn        1 MOL      0.193961
    111 H48        -1.9050    0.9520   -1.1680 h1        1 MOL      0.075788
    112 H49        -1.5480   -0.7310    1.2920 hc        1 MOL      0.115896
    113 H50        -0.2080    0.3110    0.9190 hc        1 MOL      0.115896
    114 N11        -4.5320    1.0210   -0.3920 n         1 MOL     -0.382087
    115 C36        -5.9410    0.6510   -0.5290 c3        1 MOL      0.089565
    116 C37        -6.3460   -0.4420    0.5280 c         1 MOL      0.293297
    117 O19        -6.1540   -0.2650    1.6980 o         1 MOL     -0.513613
    118 C38        -6.7680    1.9140   -0.4220 c3        1 MOL     -0.201726
    119 C39        -8.2610    1.7820   -0.4280 ca        1 MOL      0.053052
    120 C40        -8.8890    1.5830   -1.6310 ca        1 MOL     -0.129092
    121 C41        -8.9170    1.6550    0.7700 ca        1 MOL     -0.129092
    122 C42       -10.1860    1.0060   -1.6660 ca        1 MOL     -0.113980
    123 C43       -10.2170    1.1670    0.7060 ca        1 MOL     -0.113980
    124 C44       -10.8600    0.7030   -0.4560 ca        1 MOL     -0.143059
    125 H51        -4.3020    1.9900   -0.5360 hn        1 MOL      0.235113
    126 H52        -5.9610    0.1420   -1.4950 h1        1 MOL      0.047894
    127 H53        -6.4190    2.6290   -1.1660 hc        1 MOL      0.098005
    128 H54        -6.5290    2.5110    0.4550 hc        1 MOL      0.098005
    129 H55        -8.3640    1.7860   -2.5500 ha        1 MOL      0.124326
    130 H56        -8.4530    2.0050    1.6840 ha        1 MOL      0.124326
    131 H57       -10.6150    0.6540   -2.5900 ha        1 MOL      0.105155
    132 H58       -10.7670    1.0340    1.6300 ha        1 MOL      0.105155
    133 H59       -11.7630    0.1080   -0.3860 ha        1 MOL      0.128919
    134 N12        -7.0030   -1.5010    0.1630 n         1 MOL     -0.033530
    135 C45        -7.5720   -2.4710    1.1410 c3        1 MOL      0.204210
    136 C46        -6.6360   -3.2230    2.0360 c         1 MOL      0.126413
    137 O20        -7.0410   -3.9720    2.9630 o         1 MOL     -0.505461
    138 C47        -8.5620   -3.3030    0.4590 c3        1 MOL     -0.163103
    139 C48        -8.8930   -2.6130   -0.8910 c3        1 MOL     -0.016280
    140 C49        -7.5980   -1.8500   -1.1860 c3        1 MOL      0.112344
    141 H60        -8.2210   -1.9220    1.8270 h1        1 MOL      0.053467
    142 H61        -8.1190   -4.2500    0.1630 hc        1 MOL      0.062717
    143 H62        -9.4240   -3.5230    1.0800 hc        1 MOL      0.062717
    144 H63        -9.1020   -3.3190   -1.6960 hc        1 MOL      0.013403
    145 H64        -9.7120   -1.8940   -0.8510 hc        1 MOL      0.013403
    146 H65        -6.8510   -2.4760   -1.6880 h1        1 MOL     -0.012239
    147 H66        -7.8340   -0.9370   -1.7270 h1        1 MOL     -0.012239
    148 N13        -5.3280   -2.9660    1.8690 n         1 MOL      0.118911
    149 C50        -4.2370   -3.5270    2.6720 c3        1 MOL     -0.193827
    150 C51        -3.7990   -2.5050    3.7260 c         1 MOL      0.417599
    151 O21        -3.0810   -2.7760    4.6880 o         1 MOL     -0.539600
    152 C52        -3.0400   -3.7740    1.7100 c3        1 MOL      0.165638
    153 C53        -3.2690   -4.8120    0.5530 c3        1 MOL     -0.297913
    154 C54        -2.0900   -4.7720   -0.4480 c         1 MOL      0.795755
    155 O22        -0.8890   -4.9030   -0.1380 o         1 MOL     -0.757220
    156 O23        -2.3300   -4.5220   -1.6960 o         1 MOL     -0.757220
    157 H67        -5.0350   -2.4370    1.0530 hn        1 MOL      0.105882
    158 H68        -4.5410   -4.4200    3.2090 h1        1 MOL      0.119644
    159 H69        -2.1710   -4.1450    2.2510 hc        1 MOL      0.033891
    160 H70        -2.7770   -2.8400    1.2270 hc        1 MOL      0.033891
    161 H71        -4.1500   -4.4760    0.0050 hc        1 MOL      0.026850
    162 H72        -3.4010   -5.8230    0.9230 hc        1 MOL      0.026850
    163 N14        -4.1050   -1.1930    3.5100 n         1 MOL     -0.122931
    164 C55        -3.9880   -0.1080    4.5310 c3        1 MOL     -0.314593
    165 H73        -3.9140    0.8570    4.0290 h1        1 MOL      0.116751
    166 H74        -4.8690   -0.1150    5.1730 h1        1 MOL      0.116751
    167 H75        -3.0950   -0.2710    5.1350 h1        1 MOL      0.116751
    168 H76        -4.6640   -0.9910    2.6980 hn        1 MOL      0.152094
    169 Ca1         0.1590   -3.6650   -2.2530 Ca        1 MOL      1.769002
    170 O24        -1.5630   -3.0550   -4.2330 oh        1 MOL     -0.841497
    171 H77        -1.8470   -2.2940   -4.7280 ho        1 MOL      0.404735
    172 H78        -1.8750   -3.8100   -4.7450 ho        1 MOL      0.404735
    173 O25         1.6070   -4.0700   -4.5630 oh        1 MOL     -0.841497
    174 H79         1.9480   -4.9250   -4.8030 ho        1 MOL      0.404735
    175 H80         1.3710   -3.6660   -5.4010 ho        1 MOL      0.404735
    176 O26        -0.2130   -6.2610   -3.1560 oh        1 MOL     -0.841497
    177 H81        -0.5070   -6.4670   -4.0410 ho        1 MOL      0.404735
    178 H82        -0.0260   -7.1030   -2.7560 ho        1 MOL      0.404735
@<TRIPOS>BOND
     1    1    2 1   
     2    1    4 1   
     3    1    5 1   
     4    1    6 1   
     5    2    3 2   
     6    2    7 1   
     7    7    8 1   
     8    7   15 1   
     9    8    9 1   
    10    8   11 1   
    11    8   16 1   
    12    9   10 2   
    13    9   19 1   
    14   11   12 1   
    15   11   17 1   
    16   11   18 1   
    17   12   13 1   
    18   12   14 1   
    19   19   20 1   
    20   19   24 1   
    21   20   21 1   
    22   20   23 1   
    23   20   25 1   
    24   21   22 2   
    25   21   29 1   
    26   23   26 1   
    27   23   27 1   
    28   23   28 1   
    29   29   30 1   
    30   29   37 1   
    31   30   31 1   
    32   30   33 1   
    33   30   38 1   
    34   31   32 2   
    35   31   41 1   
    36   33   34 1   
    37   33   39 1   
    38   33   40 1   
    39   34   35 1   
    40   34   36 1   
    41   41   42 1   
    42   41   45 1   
    43   42   43 1   
    44   42   46 1   
    45   42   47 1   
    46   43   44 2   
    47   43   48 1   
    48   48   49 1   
    49   48   56 1   
    50   49   50 1   
    51   49   52 1   
    52   49   57 1   
    53   50   51 2   
    54   50   62 1   
    55   52   53 1   
    56   52   58 1   
    57   52   59 1   
    58   53   54 1   
    59   53   55 2   
    60   54   60 1   
    61   54   61 1   
    62   62   63 1   
    63   62   66 1   
    64   63   64 1   
    65   63   67 1   
    66   63   68 1   
    67   64   65 2   
    68   64   69 1   
    69   69   70 1   
    70   69   76 1   
    71   70   71 1   
    72   70   73 1   
    73   70   77 1   
    74   71   72 2   
    75   71   83 1   
    76   73   74 1   
    77   73   75 1   
    78   73   78 1   
    79   74   80 1   
    80   74   81 1   
    81   74   82 1   
    82   75   79 1   
    83   83   84 1   
    84   83   91 1   
    85   84   85 1   
    86   84   87 1   
    87   84   92 1   
    88   85   86 2   
    89   85  102 1   
    90   87   88 1   
    91   87   89 1   
    92   87   93 1   
    93   88   90 1   
    94   88   94 1   
    95   88   95 1   
    96   89   96 1   
    97   89   97 1   
    98   89   98 1   
    99   90   99 1   
   100   90  100 1   
   101   90  101 1   
   102  102  103 1   
   103  102  110 1   
   104  103  104 1   
   105  103  106 1   
   106  103  111 1   
   107  104  105 2   
   108  104  114 1   
   109  106  107 1   
   110  106  112 1   
   111  106  113 1   
   112  107  108 1   
   113  107  109 1   
   114  114  115 1   
   115  114  125 1   
   116  115  116 1   
   117  115  118 1   
   118  115  126 1   
   119  116  117 2   
   120  116  134 1   
   121  118  119 1   
   122  118  127 1   
   123  118  128 1   
   124  119  120 ar  
   125  119  121 ar  
   126  120  122 ar  
   127  120  129 1   
   128  121  123 ar  
   129  121  130 1   
   130  122  124 ar  
   131  122  131 1   
   132  123  124 ar  
   133  123  132 1   
   134  124  133 1   
   135  134  135 1   
   136  134  140 1   
   137  135  136 1   
   138  135  138 1   
   139  135  141 1   
   140  136  137 2   
   141  136  148 1   
   142  138  139 1   
   143  138  142 1   
   144  138  143 1   
   145  139  140 1   
   146  139  144 1   
   147  139  145 1   
   148  140  146 1   
   149  140  147 1   
   150  148  149 1   
   151  148  157 1   
   152  149  150 1   
   153  149  152 1   
   154  149  158 1   
   155  150  151 2   
   156  150  163 1   
   157  152  153 1   
   158  152  159 1   
   159  152  160 1   
   160  153  154 1   
   161  153  161 1   
   162  153  162 1   
   163  154  155 1   
   164  154  156 1   
   165  163  164 1   
   166  163  168 1   
   167  164  165 1   
   168  164  166 1   
   169  164  167 1   
   170  170  171 1   
   171  170  172 1   
   172  173  174 1   
   173  173  175 1   
   174  176  177 1   
   175  176  178 1   
@<TRIPOS>SUBSTRUCTURE
     1 MOL         1 TEMP              0 ****  ****    0 ROOT
