@<TRIPOS>MOLECULE
MOL
  192   187     1     0     0
SMALL
resp


@<TRIPOS>ATOM
      1 C1          9.0680    0.7100    1.6940 c3        1 MOL     -0.642526
      2 C2          7.9120    0.1180    0.8120 c         1 MOL      0.836687
      3 O1          6.7450    0.1550    1.2300 o         1 MOL     -0.716506
      4 H1          8.7740    1.6920    2.0670 hc        1 MOL      0.163873
      5 H2          9.2610    0.0460    2.5360 hc        1 MOL      0.163873
      6 H3          9.9720    0.8060    1.0920 hc        1 MOL      0.163873
      7 N1          8.1550   -0.4180   -0.3630 n         1 MOL     -0.509889
      8 C3          7.2090   -0.7930   -1.4220 c3        1 MOL     -0.181982
      9 C4          6.5510   -2.1610   -1.1240 c         1 MOL      0.455232
     10 O2          6.2360   -2.9590   -2.0340 o         1 MOL     -0.444478
     11 C5          7.8190   -0.6450   -2.8410 c3        1 MOL     -0.099524
     12 C6          9.1220   -1.4900   -3.0620 c         1 MOL      0.661487
     13 O3          9.8100   -1.1380   -4.0500 o         1 MOL     -0.643371
     14 O4          9.3690   -2.5000   -2.3080 o         1 MOL     -0.643371
     15 H4          9.1290   -0.4730   -0.6050 hn        1 MOL      0.278113
     16 H5          6.3650   -0.1080   -1.4640 h1        1 MOL      0.189957
     17 H6          8.0830    0.4050   -2.9250 hc        1 MOL      0.070860
     18 H7          7.0790   -0.7680   -3.6330 hc        1 MOL      0.070860
     19 N2          6.2990   -2.5070    0.1490 n         1 MOL     -0.314813
     20 C7          5.8240   -3.8170    0.6170 c3        1 MOL     -0.028210
     21 C8          4.3540   -4.1060    0.2720 c         1 MOL      0.583242
     22 O5          4.1220   -5.1170   -0.3360 o         1 MOL     -0.552532
     23 C9          6.1130   -3.9500    2.1050 c3        1 MOL     -0.074825
     24 C10         7.5920   -3.8400    2.4170 c3        1 MOL      0.131530
     25 C11         7.9370   -3.7500    3.8680 c3        1 MOL     -0.317419
     26 C12         9.4720   -3.7480    3.9610 c3        1 MOL      0.296022
     27 N3          9.7870   -4.0560    5.3690 n4        1 MOL     -0.326531
     28 H8          6.5750   -1.8880    0.8950 hn        1 MOL      0.283167
     29 H9          6.3860   -4.4600   -0.0590 h1        1 MOL      0.103151
     30 H10         5.5830   -4.8910    2.2820 hc        1 MOL      0.033373
     31 H11         5.5830   -3.1940    2.6830 hc        1 MOL      0.033373
     32 H12         8.1650   -2.9910    2.0320 hc        1 MOL      0.002101
     33 H13         8.0560   -4.7480    2.0220 hc        1 MOL      0.002101
     34 H14         7.5960   -4.6460    4.3890 hc        1 MOL      0.080622
     35 H15         7.5220   -2.8160    4.2480 hc        1 MOL      0.080622
     36 H16         9.8650   -2.7820    3.6450 hx        1 MOL      0.022174
     37 H17        10.0530   -4.4210    3.3240 hx        1 MOL      0.022174
     38 H18         9.6770   -5.0330    5.6270 hn        1 MOL      0.269522
     39 H19        10.6450   -3.5590    5.5600 hn        1 MOL      0.269522
     40 H20         9.0290   -3.5970    5.8480 hn        1 MOL      0.269522
     41 N4          3.3950   -3.2530    0.5490 n         1 MOL     -0.465509
     42 C13         3.4170   -1.9520    1.1950 c3        1 MOL      0.095156
     43 C14         3.4450   -0.8220    0.1590 c         1 MOL      0.027545
     44 O6          3.2200   -0.9900   -1.0460 o         1 MOL     -0.313787
     45 C15         2.1980   -1.8890    2.1350 c3        1 MOL     -0.195328
     46 C16         0.9110   -2.1360    1.3690 c         1 MOL      0.678335
     47 O7          0.6130   -1.4390    0.3320 o         1 MOL     -0.650067
     48 O8          0.1260   -2.9570    1.8760 o         1 MOL     -0.650067
     49 H21         2.5420   -3.4540    0.0520 hn        1 MOL      0.332036
     50 H22         4.3270   -1.8380    1.7850 h1        1 MOL      0.091023
     51 H23         2.1760   -0.9080    2.5940 hc        1 MOL      0.049386
     52 H24         2.2290   -2.6510    2.9230 hc        1 MOL      0.049386
     53 N5          3.8640    0.3470    0.6400 n         1 MOL     -0.155515
     54 C17         4.2110    1.5740   -0.0150 c3        1 MOL     -0.179038
     55 C18         3.0620    2.3720   -0.4790 c         1 MOL      0.692553
     56 O9          1.9220    1.9010   -0.4940 o         1 MOL     -0.671461
     57 H25         4.1650    0.3560    1.6090 hn        1 MOL      0.270143
     58 H26         4.7600    1.2310   -0.8880 h1        1 MOL      0.113036
     59 H27         4.7860    2.2280    0.6430 h1        1 MOL      0.113036
     60 N6          3.3370    3.5560   -1.0510 n         1 MOL     -0.712624
     61 C19         2.3490    4.4300   -1.7580 c3        1 MOL      0.464531
     62 C20         3.0760    5.8200   -1.8760 c         1 MOL      0.232445
     63 O10         4.2990    5.9740   -1.7260 o         1 MOL     -0.459570
     64 C21         1.7960    3.8100   -3.0270 c3        1 MOL     -0.031584
     65 C22         2.8760    3.3100   -3.9600 c         1 MOL      0.688977
     66 O11         3.2420    2.1090   -3.9750 o         1 MOL     -0.662167
     67 O12         3.3840    4.1670   -4.6940 o         1 MOL     -0.662167
     68 H28         4.3220    3.7500   -1.1710 hn        1 MOL      0.350124
     69 H29         1.5400    4.5540   -1.0420 h1        1 MOL      0.036064
     70 H30         1.2160    4.5330   -3.5850 hc        1 MOL     -0.027240
     71 H31         1.1550    2.9480   -2.8520 hc        1 MOL     -0.027240
     72 N7          2.2940    6.8900   -2.1490 n         1 MOL     -0.245177
     73 C23         0.8510    7.0770   -2.3490 c3        1 MOL     -0.334433
     74 C24        -0.0200    6.5730   -1.1770 c         1 MOL      0.758574
     75 O13         0.2320    6.8750   -0.0490 o         1 MOL     -0.541378
     76 H32         2.9000    7.7080   -2.0850 hn        1 MOL      0.279027
     77 H33         0.6450    6.5780   -3.2920 h1        1 MOL      0.136688
     78 H34         0.6490    8.1510   -2.4260 h1        1 MOL      0.136688
     79 N8         -1.0440    5.7450   -1.4550 n         1 MOL     -0.819790
     80 C25        -2.0030    5.2420   -0.4250 c3        1 MOL      0.201090
     81 C26        -1.4250    4.0870    0.3820 c         1 MOL      0.690899
     82 O14        -0.8060    3.1890   -0.2150 o         1 MOL     -0.761627
     83 C27        -3.3230    4.8870   -1.0230 c3        1 MOL      0.515155
     84 C28        -4.0600    6.0890   -1.5810 c3        1 MOL     -0.150405
     85 O15        -4.1580    4.2640   -0.0800 oh        1 MOL     -0.725353
     86 H35        -1.4210    5.7780   -2.3950 hn        1 MOL      0.381708
     87 H36        -2.2800    5.9700    0.3450 h1        1 MOL      0.022093
     88 H37        -3.1700    4.1690   -1.8180 h1        1 MOL     -0.078273
     89 H38        -4.9130    3.8770   -0.5390 ho        1 MOL      0.415233
     90 H39        -4.9850    5.7410   -2.0380 hc        1 MOL      0.027478
     91 H40        -4.2480    6.8430   -0.8160 hc        1 MOL      0.027478
     92 H41        -3.3590    6.4040   -2.3620 hc        1 MOL      0.027478
     93 N9         -1.5770    4.0070    1.6780 n         1 MOL     -0.604391
     94 C29        -1.0920    2.9880    2.6250 c3        1 MOL      0.239554
     95 C30        -1.5370    1.5400    2.3400 c         1 MOL      0.429153
     96 O16        -1.0050    0.9360    1.4420 o         1 MOL     -0.549969
     97 C31         0.4550    3.0340    2.8340 c3        1 MOL      0.168666
     98 C32         1.0990    4.4440    2.9740 c3        1 MOL     -0.005326
     99 C33         0.6710    2.1880    4.1160 c3        1 MOL     -0.268193
    100 C34         0.6450    5.1760    4.2390 c3        1 MOL     -0.174986
    101 H42        -2.1120    4.7920    2.0210 hn        1 MOL      0.299685
    102 H43        -1.5150    3.3300    3.5720 h1        1 MOL      0.030282
    103 H44         0.9110    2.5490    1.9750 hc        1 MOL     -0.017014
    104 H45         0.8750    5.1180    2.1420 hc        1 MOL      0.044393
    105 H46         2.1860    4.3910    2.9010 hc        1 MOL      0.044393
    106 H47         1.6610    2.3530    4.5340 hc        1 MOL      0.058919
    107 H48        -0.0950    2.4850    4.8340 hc        1 MOL      0.058919
    108 H49         0.4520    1.1470    3.8630 hc        1 MOL      0.058919
    109 H50         0.5990    6.2540    4.1160 hc        1 MOL      0.035991
    110 H51        -0.3900    4.9330    4.4670 hc        1 MOL      0.035991
    111 H52         1.3140    4.9680    5.0730 hc        1 MOL      0.035991
    112 N10        -2.4300    0.8810    3.1390 n         1 MOL     -0.321478
    113 C35        -2.7520   -0.5760    3.0040 c3        1 MOL     -0.167511
    114 C36        -4.2890   -0.8140    3.0720 c         1 MOL      0.792205
    115 O17        -4.6310   -1.9730    2.9770 o         1 MOL     -0.614220
    116 C37        -2.0010   -1.4220    4.0550 c3        1 MOL      0.344469
    117 C38        -2.3370   -1.1530    5.5520 c3        1 MOL     -0.266372
    118 O18        -0.6410   -1.3470    3.9390 oh        1 MOL     -0.562613
    119 H53        -3.0150    1.4710    3.7100 hn        1 MOL      0.205252
    120 H54        -2.4630   -0.9570    2.0260 h1        1 MOL      0.125578
    121 H55        -2.1340   -2.4780    3.8250 h1        1 MOL      0.017929
    122 H56        -0.4700   -1.9550    3.2180 ho        1 MOL      0.369416
    123 H57        -3.3920   -1.3340    5.7100 hc        1 MOL      0.060318
    124 H58        -1.6630   -1.7790    6.1320 hc        1 MOL      0.060318
    125 H59        -2.0580   -0.1110    5.7300 hc        1 MOL      0.060318
    126 N11        -5.1780    0.1610    2.9730 n         1 MOL     -0.540021
    127 C39        -6.5800   -0.1450    2.7360 c3        1 MOL     -0.041482
    128 C40        -6.6910   -0.5270    1.2500 c         1 MOL      0.478131
    129 O19        -6.9760    0.3090    0.3560 o         1 MOL     -0.526235
    130 C41        -7.5170    1.0370    3.1200 c3        1 MOL      0.593301
    131 C42        -8.9420    0.7150    3.0740 c3        1 MOL     -0.419504
    132 O20        -7.2340    1.5040    4.4310 oh        1 MOL     -0.638875
    133 H60        -4.8880    1.1280    2.9370 hn        1 MOL      0.273174
    134 H61        -6.8080   -0.9690    3.4200 h1        1 MOL      0.114980
    135 H62        -7.4490    1.9180    2.4750 h1        1 MOL     -0.057207
    136 H63        -7.1580    2.4470    4.2820 ho        1 MOL      0.374021
    137 H64        -9.5590    1.5370    3.4360 hc        1 MOL      0.101630
    138 H65        -9.2620    0.5840    2.0370 hc        1 MOL      0.101630
    139 H66        -9.2340   -0.1460    3.6730 hc        1 MOL      0.101630
    140 N12        -6.6010   -1.8260    1.0430 n         1 MOL     -0.760292
    141 C43        -6.5470   -2.4220   -0.2900 c3        1 MOL      0.628845
    142 C44        -5.2020   -2.1550   -0.9750 c         1 MOL      0.417816
    143 O21        -4.5740   -1.0960   -0.7830 o         1 MOL     -0.537101
    144 C45        -7.8450   -2.0750   -1.1110 c3        1 MOL     -0.591197
    145 C46        -9.2030   -2.0330   -0.3050 c3        1 MOL      0.497054
    146 C47       -10.4370   -2.0350   -1.2330 c3        1 MOL     -0.028304
    147 C48       -11.6540   -2.2270   -0.3320 c3        1 MOL      0.024839
    148 N13       -12.7620   -2.6010   -1.2620 n4        1 MOL     -0.156997
    149 H67        -6.1720   -2.3110    1.8120 hn        1 MOL      0.372398
    150 H68        -6.5960   -3.5110   -0.2890 h1        1 MOL     -0.050909
    151 H69        -7.8780   -2.8700   -1.8690 hc        1 MOL      0.104023
    152 H70        -7.7310   -1.1470   -1.6720 hc        1 MOL      0.104023
    153 H71        -9.1710   -1.1990    0.3910 hc        1 MOL     -0.095407
    154 H72        -9.2260   -2.9470    0.2900 hc        1 MOL     -0.095407
    155 H73       -10.3490   -2.7800   -2.0200 hc        1 MOL      0.024958
    156 H74       -10.5840   -1.0680   -1.7090 hc        1 MOL      0.024958
    157 H75       -11.8060   -1.3550    0.3120 hx        1 MOL      0.049544
    158 H76       -11.3820   -3.0840    0.2750 hx        1 MOL      0.049544
    159 H77       -12.6490   -3.5180   -1.6550 hn        1 MOL      0.192795
    160 H78       -13.6120   -2.8120   -0.7630 hn        1 MOL      0.192795
    161 H79       -12.8840   -1.8590   -1.9300 hn        1 MOL      0.192795
    162 N14        -4.7280   -3.0440   -1.8150 n         1 MOL     -0.434171
    163 C49        -3.4060   -2.9410   -2.4930 c3        1 MOL      0.229228
    164 C50        -2.2480   -2.6080   -1.3700 c         1 MOL      0.574120
    165 O22        -1.5710   -1.5960   -1.4390 o         1 MOL     -0.731944
    166 C51        -3.1540   -4.2560   -3.3410 c3        1 MOL     -0.299093
    167 C52        -3.8230   -4.2150   -4.7170 c3        1 MOL     -0.204771
    168 C53        -3.9490   -5.6060   -5.3910 c         1 MOL      0.712791
    169 O23        -5.0630   -6.0340   -5.7110 o         1 MOL     -0.656051
    170 O24        -2.9350   -6.1630   -5.7640 o         1 MOL     -0.656051
    171 H80        -5.3390   -3.8350   -2.0130 hn        1 MOL      0.286910
    172 H81        -3.3720   -2.1010   -3.1780 h1        1 MOL      0.028197
    173 H82        -3.3790   -5.1550   -2.7680 hc        1 MOL      0.131972
    174 H83        -2.0980   -4.2690   -3.5910 hc        1 MOL      0.131972
    175 H84        -3.4090   -3.4910   -5.4210 hc        1 MOL      0.051894
    176 H85        -4.7890   -3.7980   -4.4280 hc        1 MOL      0.051894
    177 N15        -1.9790   -3.4980   -0.4160 n         1 MOL     -0.370012
    178 C54        -2.6640   -4.7860   -0.0650 c3        1 MOL     -0.020830
    179 H86        -2.5250   -5.5030   -0.8750 h1        1 MOL      0.038264
    180 H87        -2.2350   -5.1880    0.8530 h1        1 MOL      0.038264
    181 H88        -3.7290   -4.6030    0.0790 h1        1 MOL      0.038264
    182 H89        -1.2980   -3.2420    0.2920 hn        1 MOL      0.329010
    183 Ca1        -0.2980    0.6420   -0.9670 Ca        1 MOL      1.856821
    184 O25         1.3040   -0.4780   -2.8570 oh        1 MOL     -0.833020
    185 H90         1.5240   -0.3890   -3.7880 ho        1 MOL      0.407871
    186 H91         1.8180   -1.2360   -2.5640 ho        1 MOL      0.407871
    187 O26        -1.1050    1.4840   -3.5210 oh        1 MOL     -0.833020
    188 H92        -2.0000    1.1410   -3.6140 ho        1 MOL      0.407871
    189 H93        -1.0420    2.1760   -4.1760 ho        1 MOL      0.407871
    190 O27        -3.0970    1.0990   -1.3710 oh        1 MOL     -0.833020
    191 H94        -3.5340    0.2580   -1.2260 ho        1 MOL      0.407871
    192 H95        -3.8150    1.7410   -1.3570 ho        1 MOL      0.407871
@<TRIPOS>BOND
     1    1    2 1   
     2    1    4 1   
     3    1    5 1   
     4    1    6 1   
     5    2    3 2   
     6    2    7 1   
     7    7    8 1   
     8    7   15 1   
     9    8    9 1   
    10    8   11 1   
    11    8   16 1   
    12    9   10 2   
    13    9   19 1   
    14   11   12 1   
    15   11   17 1   
    16   11   18 1   
    17   12   13 1   
    18   12   14 1   
    19   19   20 1   
    20   19   28 1   
    21   20   21 1   
    22   20   23 1   
    23   20   29 1   
    24   21   22 2   
    25   21   41 1   
    26   23   24 1   
    27   23   30 1   
    28   23   31 1   
    29   24   25 1   
    30   24   32 1   
    31   24   33 1   
    32   25   26 1   
    33   25   34 1   
    34   25   35 1   
    35   26   27 1   
    36   26   36 1   
    37   26   37 1   
    38   27   38 1   
    39   27   39 1   
    40   27   40 1   
    41   41   42 1   
    42   41   49 1   
    43   42   43 1   
    44   42   45 1   
    45   42   50 1   
    46   43   44 2   
    47   43   53 1   
    48   45   46 1   
    49   45   51 1   
    50   45   52 1   
    51   46   47 1   
    52   46   48 1   
    53   53   54 1   
    54   53   57 1   
    55   54   55 1   
    56   54   58 1   
    57   54   59 1   
    58   55   56 2   
    59   55   60 1   
    60   60   61 1   
    61   60   68 1   
    62   61   62 1   
    63   61   64 1   
    64   61   69 1   
    65   62   63 2   
    66   62   72 1   
    67   64   65 1   
    68   64   70 1   
    69   64   71 1   
    70   65   66 1   
    71   65   67 1   
    72   72   73 1   
    73   72   76 1   
    74   73   74 1   
    75   73   77 1   
    76   73   78 1   
    77   74   75 2   
    78   74   79 1   
    79   79   80 1   
    80   79   86 1   
    81   80   81 1   
    82   80   83 1   
    83   80   87 1   
    84   81   82 2   
    85   81   93 1   
    86   83   84 1   
    87   83   85 1   
    88   83   88 1   
    89   84   90 1   
    90   84   91 1   
    91   84   92 1   
    92   85   89 1   
    93   93   94 1   
    94   93  101 1   
    95   94   95 1   
    96   94   97 1   
    97   94  102 1   
    98   95   96 2   
    99   95  112 1   
   100   97   98 1   
   101   97   99 1   
   102   97  103 1   
   103   98  100 1   
   104   98  104 1   
   105   98  105 1   
   106   99  106 1   
   107   99  107 1   
   108   99  108 1   
   109  100  109 1   
   110  100  110 1   
   111  100  111 1   
   112  112  113 1   
   113  112  119 1   
   114  113  114 1   
   115  113  116 1   
   116  113  120 1   
   117  114  115 2   
   118  114  126 1   
   119  116  117 1   
   120  116  118 1   
   121  116  121 1   
   122  117  123 1   
   123  117  124 1   
   124  117  125 1   
   125  118  122 1   
   126  126  127 1   
   127  126  133 1   
   128  127  128 1   
   129  127  130 1   
   130  127  134 1   
   131  128  129 2   
   132  128  140 1   
   133  130  131 1   
   134  130  132 1   
   135  130  135 1   
   136  131  137 1   
   137  131  138 1   
   138  131  139 1   
   139  132  136 1   
   140  140  141 1   
   141  140  149 1   
   142  141  142 1   
   143  141  144 1   
   144  141  150 1   
   145  142  143 2   
   146  142  162 1   
   147  144  145 1   
   148  144  151 1   
   149  144  152 1   
   150  145  146 1   
   151  145  153 1   
   152  145  154 1   
   153  146  147 1   
   154  146  155 1   
   155  146  156 1   
   156  147  148 1   
   157  147  157 1   
   158  147  158 1   
   159  148  159 1   
   160  148  160 1   
   161  148  161 1   
   162  162  163 1   
   163  162  171 1   
   164  163  164 1   
   165  163  166 1   
   166  163  172 1   
   167  164  165 2   
   168  164  177 1   
   169  166  167 1   
   170  166  173 1   
   171  166  174 1   
   172  167  168 1   
   173  167  175 1   
   174  167  176 1   
   175  168  169 1   
   176  168  170 1   
   177  177  178 1   
   178  177  182 1   
   179  178  179 1   
   180  178  180 1   
   181  178  181 1   
   182  184  185 1   
   183  184  186 1   
   184  187  188 1   
   185  187  189 1   
   186  190  191 1   
   187  190  192 1   
@<TRIPOS>SUBSTRUCTURE
     1 MOL         1 TEMP              0 ****  ****    0 ROOT
