@<TRIPOS>MOLECULE
MOL
  181   177     1     0     0
SMALL
resp


@<TRIPOS>ATOM
      1 C1         -5.1600   -4.0310   -5.7630 c3        1 MOL     -0.135552
      2 C2         -4.9350   -2.6430   -5.0580 c         1 MOL      0.591843
      3 O1         -4.0650   -1.8670   -5.4900 o         1 MOL     -0.570796
      4 H1         -6.1300   -4.0320   -6.2600 hc        1 MOL      0.032876
      5 H2         -4.3740   -4.1960   -6.5010 hc        1 MOL      0.032876
      6 H3         -5.1330   -4.8260   -5.0190 hc        1 MOL      0.032876
      7 N1         -5.4580   -2.4030   -3.8310 n         1 MOL     -0.391079
      8 C3         -6.4690   -3.1730   -3.0000 c3        1 MOL      0.041285
      9 C4         -5.8820   -3.6670   -1.6490 c         1 MOL      0.685213
     10 O2         -5.0880   -2.8750   -1.0820 o         1 MOL     -0.604592
     11 C5         -7.6570   -2.3120   -2.7770 c3        1 MOL     -0.118658
     12 C6         -7.3810   -0.8300   -2.4880 c         1 MOL      0.721206
     13 O3         -6.2930   -0.4230   -2.0620 o         1 MOL     -0.704402
     14 O4         -8.2980   -0.0380   -2.9120 o         1 MOL     -0.704402
     15 H4         -5.3150   -1.4850   -3.4380 hn        1 MOL      0.249161
     16 H5         -6.8330   -4.0610   -3.5200 h1        1 MOL      0.010647
     17 H6         -8.2600   -2.7690   -2.0000 hc        1 MOL      0.014205
     18 H7         -8.2630   -2.3130   -3.6920 hc        1 MOL      0.014205
     19 N2         -6.2770   -4.8420   -1.1750 n         1 MOL     -0.628829
     20 C7         -5.8400   -5.5120    0.0700 c3        1 MOL      0.260607
     21 C8         -5.9380   -4.6810    1.4250 c         1 MOL      0.342477
     22 O5         -6.1520   -5.3080    2.4890 o         1 MOL     -0.523952
     23 C9         -4.4000   -6.0950   -0.1520 c3        1 MOL     -0.242085
     24 H8         -7.0010   -5.3420   -1.6770 hn        1 MOL      0.334817
     25 H9         -6.5070   -6.3580    0.2360 h1        1 MOL      0.027184
     26 H10        -4.0800   -6.6670    0.7240 hc        1 MOL      0.080837
     27 H11        -4.5140   -6.7560   -1.0110 hc        1 MOL      0.080837
     28 H12        -3.6930   -5.3360   -0.4820 hc        1 MOL      0.080837
     29 N3         -5.9220   -3.3640    1.4270 n         1 MOL     -0.237508
     30 C10        -6.1740   -2.4710    2.5760 c3        1 MOL     -0.217525
     31 C11        -6.7770   -1.1870    1.9530 c         1 MOL      0.606084
     32 O6         -6.0660   -0.6110    1.1010 o         1 MOL     -0.744615
     33 C12        -4.8440   -2.1340    3.2420 c3        1 MOL      0.368923
     34 C13        -3.6000   -2.2930    2.3390 c         1 MOL      0.501792
     35 O7         -3.3200   -1.3510    1.5300 o         1 MOL     -0.613733
     36 O8         -2.7190   -3.2000    2.5920 o         1 MOL     -0.613733
     37 H13        -5.6340   -2.9640    0.5430 hn        1 MOL      0.202679
     38 H14        -6.8860   -2.9350    3.2560 h1        1 MOL      0.086660
     39 H15        -4.7110   -2.7620    4.1200 hc        1 MOL     -0.084659
     40 H16        -4.9490   -1.1070    3.5710 hc        1 MOL     -0.084659
     41 N4         -7.7190   -0.5450    2.6040 n         1 MOL     -0.370411
     42 C14        -8.3020    0.7460    2.3010 c3        1 MOL     -0.176508
     43 C15        -7.4550    1.9340    2.8310 c         1 MOL      0.587566
     44 O9         -7.9580    2.9500    3.3610 o         1 MOL     -0.588278
     45 H17        -7.9440   -1.0270    3.4590 hn        1 MOL      0.280701
     46 H18        -9.2570    0.9600    2.7850 h1        1 MOL      0.134125
     47 H19        -8.4150    0.7890    1.2140 h1        1 MOL      0.134125
     48 N5         -6.1460    1.8140    2.7600 n         1 MOL     -0.432382
     49 C16        -5.0510    2.7330    3.0830 c3        1 MOL     -0.090084
     50 C17        -4.0700    2.8140    1.8890 c         1 MOL      0.750662
     51 O10        -3.7250    1.8330    1.2900 o         1 MOL     -0.642329
     52 C18        -4.3870    2.2020    4.4200 c3        1 MOL     -0.131399
     53 C19        -5.0460    2.6320    5.7500 c         1 MOL      0.586391
     54 N6         -6.2200    3.2560    5.6660 n         1 MOL     -0.740049
     55 O11        -4.4840    2.3930    6.8310 o         1 MOL     -0.558432
     56 H20        -5.7000    0.9570    2.4720 hn        1 MOL      0.282798
     57 H21        -5.4730    3.7200    3.2300 h1        1 MOL      0.092144
     58 H22        -3.3230    2.4180    4.4750 hc        1 MOL      0.085257
     59 H23        -4.4530    1.1360    4.5950 hc        1 MOL      0.085257
     60 H24        -6.6670    3.1800    4.7650 hn        1 MOL      0.354696
     61 H25        -6.7810    3.3630    6.5000 hn        1 MOL      0.354696
     62 N7         -3.6050    4.0200    1.5540 n         1 MOL     -0.514402
     63 C20        -2.6350    4.2250    0.4920 c3        1 MOL      0.137456
     64 C21        -1.8290    5.4440    0.7550 c         1 MOL      0.637839
     65 O12        -1.9190    6.1500    1.7430 o         1 MOL     -0.570694
     66 H26        -3.9880    4.7900    2.0700 hn        1 MOL      0.262951
     67 H27        -3.2160    4.3600   -0.4210 h1        1 MOL      0.058534
     68 H28        -1.9190    3.4100    0.3580 h1        1 MOL      0.058534
     69 N8         -1.0450    5.8540   -0.2130 n         1 MOL     -0.568816
     70 C22        -0.6180    5.3330   -1.4790 c3        1 MOL     -0.133833
     71 C23         0.5610    4.4360   -1.2680 c         1 MOL      0.556485
     72 O13         1.3770    4.6140   -0.3210 o         1 MOL     -0.469807
     73 C24        -0.2070    6.3590   -2.5190 c3        1 MOL      0.476573
     74 C25        -1.4470    6.9940   -3.1470 c3        1 MOL     -0.389837
     75 O14         0.4620    7.4950   -1.9040 oh        1 MOL     -0.623443
     76 H29        -0.6100    6.7500   -0.0310 hn        1 MOL      0.358836
     77 H30        -1.4970    4.8210   -1.8580 h1        1 MOL      0.076824
     78 H31         0.4760    6.0080   -3.2960 h1        1 MOL      0.011794
     79 H32         0.7440    8.0550   -2.6300 ho        1 MOL      0.399241
     80 H33        -2.0510    7.2750   -2.2860 hc        1 MOL      0.083171
     81 H34        -1.1970    7.8400   -3.7920 hc        1 MOL      0.083171
     82 H35        -1.8920    6.1970   -3.7450 hc        1 MOL      0.083171
     83 N9          0.8440    3.5810   -2.2130 n         1 MOL     -0.443974
     84 C26         1.9580    2.6250   -2.2470 c3        1 MOL     -0.048045
     85 C27         3.3370    3.2610   -2.5740 c         1 MOL      0.702389
     86 O15         3.4280    3.8710   -3.6120 o         1 MOL     -0.635611
     87 C28         1.7390    1.4460   -3.2730 c3        1 MOL     -0.053400
     88 C29         0.4780    0.5990   -3.0470 c3        1 MOL      0.357147
     89 C30         2.9570    0.4200   -3.1780 c3        1 MOL     -0.092529
     90 C31        -0.0500   -0.1150   -4.2850 c3        1 MOL     -0.130853
     91 H36         0.2330    3.4980   -3.0130 hn        1 MOL      0.243430
     92 H37         1.9670    2.1670   -1.2600 h1        1 MOL      0.077802
     93 H38         1.6760    1.8000   -4.3010 hc        1 MOL     -0.006979
     94 H39        -0.2920    1.2690   -2.6730 hc        1 MOL     -0.100635
     95 H40         0.7390   -0.1410   -2.2860 hc        1 MOL     -0.100635
     96 H41         2.8220   -0.3560   -3.9290 hc        1 MOL      0.033189
     97 H42         3.9100    0.8190   -3.5370 hc        1 MOL      0.033189
     98 H43         3.0240    0.1100   -2.1350 hc        1 MOL      0.033189
     99 H44         0.7390   -0.8310   -4.5270 hc        1 MOL      0.013428
    100 H45        -0.9600   -0.7080   -4.1840 hc        1 MOL      0.013428
    101 H46        -0.0970    0.5920   -5.1130 hc        1 MOL      0.013428
    102 N10         4.4340    3.2610   -1.8560 n         1 MOL     -0.571744
    103 C32         4.6600    2.7250   -0.4980 c3        1 MOL      0.280132
    104 C33         5.5760    1.5370   -0.5320 c         1 MOL      0.588789
    105 O16         5.9070    1.0840   -1.6490 o         1 MOL     -0.567480
    106 C34         5.2700    3.8950    0.4000 c3        1 MOL     -0.231472
    107 C35         6.2910    4.7650   -0.2720 c         1 MOL      0.738274
    108 O17         5.9300    5.8330   -0.8560 o         1 MOL     -0.732709
    109 O18         7.4430    4.3480   -0.2750 o         1 MOL     -0.732709
    110 H47         5.1600    3.7680   -2.3570 hn        1 MOL      0.358768
    111 H48         3.7500    2.4160    0.0060 h1        1 MOL      0.011973
    112 H49         5.6170    3.5910    1.3890 hc        1 MOL      0.022314
    113 H50         4.3530    4.4000    0.7200 hc        1 MOL      0.022314
    114 N11         6.0760    1.0580    0.6090 n         1 MOL     -0.693799
    115 C36         7.1720    0.1310    0.6910 c3        1 MOL      0.373306
    116 C37         7.2070   -0.5400    2.0750 c         1 MOL      0.240003
    117 O19         7.0450    0.1980    3.0470 o         1 MOL     -0.502650
    118 C38         8.4800    0.9710    0.5150 c3        1 MOL     -0.043837
    119 C39         9.7720    0.1200    0.5820 ca        1 MOL     -0.005662
    120 C40        10.4890    0.0230    1.7530 ca        1 MOL     -0.105689
    121 C41        10.1420   -0.6860   -0.5340 ca        1 MOL     -0.105689
    122 C42        11.4920   -0.9790    1.9260 ca        1 MOL     -0.134152
    123 C43        11.1300   -1.6650   -0.3460 ca        1 MOL     -0.134152
    124 C44        11.7820   -1.8900    0.8880 ca        1 MOL     -0.134408
    125 H51         5.7760    1.5720    1.4240 hn        1 MOL      0.333897
    126 H52         7.1900   -0.5110   -0.1840 h1        1 MOL     -0.008639
    127 H53         8.5410    1.7620    1.2750 hc        1 MOL      0.061289
    128 H54         8.3720    1.5770   -0.3870 hc        1 MOL      0.061289
    129 H55        10.2830    0.7160    2.5520 ha        1 MOL      0.119823
    130 H56         9.6020   -0.5490   -1.4510 ha        1 MOL      0.119823
    131 H57        11.9270   -1.0640    2.9020 ha        1 MOL      0.099795
    132 H58        11.3260   -2.2970   -1.1970 ha        1 MOL      0.099795
    133 H59        12.5080   -2.6860    0.9780 ha        1 MOL      0.102566
    134 N12         7.5010   -1.8500    2.1870 n         1 MOL      0.061439
    135 C45         7.7440   -2.7590    1.1220 c3        1 MOL      0.153837
    136 C46         6.5760   -3.2220    0.2430 c         1 MOL      0.633679
    137 O20         6.8530   -3.7010   -0.8260 o         1 MOL     -0.576737
    138 C47         8.6010   -3.9250    1.7100 c3        1 MOL     -0.181773
    139 C48         8.1790   -3.9670    3.1910 c3        1 MOL     -0.142426
    140 C49         7.9010   -2.5090    3.3950 c3        1 MOL      0.059003
    141 H60         8.4210   -2.2480    0.4390 h1        1 MOL     -0.064937
    142 H61         8.4090   -4.8120    1.1110 hc        1 MOL      0.067347
    143 H62         9.6540   -3.6450    1.7220 hc        1 MOL      0.067347
    144 H63         7.2290   -4.4600    3.3620 hc        1 MOL      0.061371
    145 H64         9.0070   -4.2900    3.8330 hc        1 MOL      0.061371
    146 H65         7.0870   -2.3730    4.1160 h1        1 MOL     -0.000837
    147 H66         8.7580   -1.9430    3.7420 h1        1 MOL     -0.000837
    148 N13         5.3260   -3.0240    0.6680 n         1 MOL     -0.534393
    149 C50         4.1870   -3.6470    0.0240 c3        1 MOL      0.119314
    150 C51         4.2800   -5.2000    0.0150 c         1 MOL      0.461339
    151 O21         4.0280   -5.8240    1.0530 o         1 MOL     -0.562264
    152 C52         2.8590   -3.0420    0.5450 c3        1 MOL     -0.117410
    153 C53         2.4830   -1.7020    0.0070 c3        1 MOL      0.061115
    154 C54         1.2540   -1.0920    0.6230 c         1 MOL      0.721002
    155 O22         0.1540   -1.4000    0.1280 o         1 MOL     -0.687602
    156 O23         1.3420   -0.4010    1.6690 o         1 MOL     -0.687602
    157 H67         5.1210   -2.6660    1.5930 hn        1 MOL      0.285796
    158 H68         4.1810   -3.2670   -1.0000 h1        1 MOL      0.105287
    159 H69         2.8320   -2.9230    1.6370 hc        1 MOL      0.051704
    160 H70         2.1050   -3.7460    0.2260 hc        1 MOL      0.051704
    161 H71         2.3530   -1.8920   -1.0650 hc        1 MOL     -0.070321
    162 H72         3.3200   -1.0260    0.1790 hc        1 MOL     -0.070321
    163 N14         4.5800   -5.9200   -1.1040 n         1 MOL     -0.367515
    164 C55         4.8940   -5.3510   -2.4310 c3        1 MOL     -0.085350
    165 H73         5.9560   -5.4800   -2.6390 h1        1 MOL      0.061659
    166 H74         4.3090   -5.8640   -3.1950 h1        1 MOL      0.061659
    167 H75         4.6490   -4.2890   -2.4390 h1        1 MOL      0.061659
    168 H76         4.4430   -6.9240   -1.0620 hn        1 MOL      0.271753
    169 Ca1        -4.1500   -0.2370   -0.5810 Ca        1 MOL      1.824383
    170 O24        -2.1790   -2.4640   -1.3190 oh        1 MOL     -0.854386
    171 H77        -2.2660   -3.3910   -1.0980 ho        1 MOL      0.404393
    172 H78        -1.3260   -2.2080   -0.9940 ho        1 MOL      0.404393
    173 O25        -1.6850    0.6180   -0.2170 oh        1 MOL     -0.854386
    174 H79        -1.3890    1.2920    0.3910 ho        1 MOL      0.404393
    175 H80        -0.9850   -0.0410   -0.2040 ho        1 MOL      0.404393
    176 O26        -3.6280    0.4340   -3.3480 oh        1 MOL     -0.854386
    177 H81        -3.9840    1.2840   -3.6090 ho        1 MOL      0.404393
    178 H82        -3.4960   -0.0340   -4.1640 ho        1 MOL      0.404393
    179 O27        -4.8600    2.1740   -1.3520 oh        1 MOL     -0.854386
    180 H83        -5.4030    1.9810   -2.1130 ho        1 MOL      0.404393
    181 H84        -5.2970    2.8840   -0.9160 ho        1 MOL      0.404393
@<TRIPOS>BOND
     1    1    2 1   
     2    1    4 1   
     3    1    5 1   
     4    1    6 1   
     5    2    3 2   
     6    2    7 1   
     7    7    8 1   
     8    7   15 1   
     9    8    9 1   
    10    8   11 1   
    11    8   16 1   
    12    9   10 2   
    13    9   19 1   
    14   11   12 1   
    15   11   17 1   
    16   11   18 1   
    17   12   13 1   
    18   12   14 1   
    19   19   20 1   
    20   19   24 1   
    21   20   21 1   
    22   20   23 1   
    23   20   25 1   
    24   21   22 2   
    25   21   29 1   
    26   23   26 1   
    27   23   27 1   
    28   23   28 1   
    29   29   30 1   
    30   29   37 1   
    31   30   31 1   
    32   30   33 1   
    33   30   38 1   
    34   31   32 2   
    35   31   41 1   
    36   33   34 1   
    37   33   39 1   
    38   33   40 1   
    39   34   35 1   
    40   34   36 1   
    41   41   42 1   
    42   41   45 1   
    43   42   43 1   
    44   42   46 1   
    45   42   47 1   
    46   43   44 2   
    47   43   48 1   
    48   48   49 1   
    49   48   56 1   
    50   49   50 1   
    51   49   52 1   
    52   49   57 1   
    53   50   51 2   
    54   50   62 1   
    55   52   53 1   
    56   52   58 1   
    57   52   59 1   
    58   53   54 1   
    59   53   55 2   
    60   54   60 1   
    61   54   61 1   
    62   62   63 1   
    63   62   66 1   
    64   63   64 1   
    65   63   67 1   
    66   63   68 1   
    67   64   65 2   
    68   64   69 1   
    69   69   70 1   
    70   69   76 1   
    71   70   71 1   
    72   70   73 1   
    73   70   77 1   
    74   71   72 2   
    75   71   83 1   
    76   73   74 1   
    77   73   75 1   
    78   73   78 1   
    79   74   80 1   
    80   74   81 1   
    81   74   82 1   
    82   75   79 1   
    83   83   84 1   
    84   83   91 1   
    85   84   85 1   
    86   84   87 1   
    87   84   92 1   
    88   85   86 2   
    89   85  102 1   
    90   87   88 1   
    91   87   89 1   
    92   87   93 1   
    93   88   90 1   
    94   88   94 1   
    95   88   95 1   
    96   89   96 1   
    97   89   97 1   
    98   89   98 1   
    99   90   99 1   
   100   90  100 1   
   101   90  101 1   
   102  102  103 1   
   103  102  110 1   
   104  103  104 1   
   105  103  106 1   
   106  103  111 1   
   107  104  105 2   
   108  104  114 1   
   109  106  107 1   
   110  106  112 1   
   111  106  113 1   
   112  107  108 1   
   113  107  109 1   
   114  114  115 1   
   115  114  125 1   
   116  115  116 1   
   117  115  118 1   
   118  115  126 1   
   119  116  117 2   
   120  116  134 1   
   121  118  119 1   
   122  118  127 1   
   123  118  128 1   
   124  119  120 ar  
   125  119  121 ar  
   126  120  122 ar  
   127  120  129 1   
   128  121  123 ar  
   129  121  130 1   
   130  122  124 ar  
   131  122  131 1   
   132  123  124 ar  
   133  123  132 1   
   134  124  133 1   
   135  134  135 1   
   136  134  140 1   
   137  135  136 1   
   138  135  138 1   
   139  135  141 1   
   140  136  137 2   
   141  136  148 1   
   142  138  139 1   
   143  138  142 1   
   144  138  143 1   
   145  139  140 1   
   146  139  144 1   
   147  139  145 1   
   148  140  146 1   
   149  140  147 1   
   150  148  149 1   
   151  148  157 1   
   152  149  150 1   
   153  149  152 1   
   154  149  158 1   
   155  150  151 2   
   156  150  163 1   
   157  152  153 1   
   158  152  159 1   
   159  152  160 1   
   160  153  154 1   
   161  153  161 1   
   162  153  162 1   
   163  154  155 1   
   164  154  156 1   
   165  163  164 1   
   166  163  168 1   
   167  164  165 1   
   168  164  166 1   
   169  164  167 1   
   170  170  171 1   
   171  170  172 1   
   172  173  174 1   
   173  173  175 1   
   174  176  177 1   
   175  176  178 1   
   176  179  180 1   
   177  179  181 1   
@<TRIPOS>SUBSTRUCTURE
     1 MOL         1 TEMP              0 ****  ****    0 ROOT
