@<TRIPOS>MOLECULE
MOL
  182   178     1     0     0
SMALL
resp


@<TRIPOS>ATOM
      1 C1          6.0770    2.6350    0.8600 c3        1 MOL     -0.291118
      2 C2          7.1890    2.2910   -0.1320 c         1 MOL      0.771954
      3 O1          6.8760    1.7040   -1.1340 o         1 MOL     -0.537100
      4 H1          5.2560    3.1200    0.3300 hc        1 MOL      0.061928
      5 H2          5.7150    1.7210    1.3320 hc        1 MOL      0.061928
      6 H3          6.4660    3.3100    1.6230 hc        1 MOL      0.061928
      7 N1          8.4640    2.6180    0.2210 n         1 MOL     -0.572052
      8 C3          9.7420    2.2010   -0.4040 c3        1 MOL      0.075261
      9 C4          9.9740    0.6640   -0.4050 c         1 MOL      0.431780
     10 O2         10.8600    0.1490   -1.0750 o         1 MOL     -0.521089
     11 C5          9.9670    2.9430   -1.7840 c3        1 MOL     -0.239272
     12 C6          9.6270    4.4170   -1.8410 c         1 MOL      0.695752
     13 O3          9.1510    4.9050   -2.8950 o         1 MOL     -0.643492
     14 O4          9.8220    5.1270   -0.8400 o         1 MOL     -0.643492
     15 H4          8.5040    3.1640    1.0810 hn        1 MOL      0.296022
     16 H5         10.5450    2.5350    0.2470 h1        1 MOL      0.074011
     17 H6          9.3390    2.5120   -2.5690 hc        1 MOL      0.085328
     18 H7         10.9730    2.6980   -2.1370 hc        1 MOL      0.085328
     19 N2          9.1440   -0.1380    0.2930 n         1 MOL     -0.290538
     20 C7          9.2440   -1.5920    0.5360 c3        1 MOL      0.108157
     21 C8          7.9530   -2.3210    0.1070 c         1 MOL      0.440387
     22 O5          7.7530   -3.4800    0.3940 o         1 MOL     -0.550274
     23 C9          9.5580   -1.7740    2.0330 c3        1 MOL     -0.060488
     24 C10        10.7390   -0.9810    2.6280 c3        1 MOL      0.051656
     25 C11        10.9920   -1.1930    4.1380 c3        1 MOL     -0.034844
     26 C12        11.7430   -2.4660    4.4140 c3        1 MOL      0.016538
     27 N3         11.8940   -2.6790    5.8790 n4        1 MOL     -0.174518
     28 H8          8.3800    0.3670    0.7100 hn        1 MOL      0.130445
     29 H9         10.0670   -2.0410   -0.0210 h1        1 MOL      0.085146
     30 H10         9.7510   -2.8350    2.0730 hc        1 MOL      0.015446
     31 H11         8.7060   -1.5580    2.6820 hc        1 MOL      0.015446
     32 H12        10.5090    0.0860    2.5420 hc        1 MOL      0.009891
     33 H13        11.6080   -1.1240    1.9930 hc        1 MOL      0.009891
     34 H14        10.0570   -1.1420    4.6950 hc        1 MOL      0.033658
     35 H15        11.5670   -0.3060    4.3980 hc        1 MOL      0.033658
     36 H16        12.7800   -2.4860    4.0610 hx        1 MOL      0.072495
     37 H17        11.1110   -3.2420    3.9720 hx        1 MOL      0.072495
     38 H18        12.8170   -2.3460    6.1200 hn        1 MOL      0.221297
     39 H19        11.1720   -2.2160    6.4100 hn        1 MOL      0.221297
     40 H20        11.9260   -3.6440    6.1470 hn        1 MOL      0.221297
     41 N4          6.9970   -1.5950   -0.4670 n         1 MOL     -0.289893
     42 C13         5.6080   -2.0290   -0.7110 c3        1 MOL     -0.017041
     43 C14         5.1580   -1.8120   -2.2390 c         1 MOL      0.409710
     44 O6          5.2270   -0.6690   -2.7110 o         1 MOL     -0.472355
     45 C15         4.6770   -1.2910    0.2440 c3        1 MOL     -0.007032
     46 C16         3.2140   -1.6970    0.1660 c         1 MOL      0.658426
     47 O7          2.4290   -1.2070    1.0220 o         1 MOL     -0.747566
     48 O8          2.7800   -2.6470   -0.5710 o         1 MOL     -0.747566
     49 H21         7.0860   -0.6120   -0.6720 hn        1 MOL      0.223013
     50 H22         5.4500   -3.0920   -0.5110 h1        1 MOL      0.042529
     51 H23         4.7800   -0.2250    0.0110 hc        1 MOL      0.025711
     52 H24         5.0770   -1.3820    1.2500 hc        1 MOL      0.025711
     53 N5          4.7850   -2.9240   -2.8830 n         1 MOL     -0.228638
     54 C17         4.4640   -2.9280   -4.3390 c3        1 MOL     -0.397724
     55 C18         2.9970   -2.5230   -4.6160 c         1 MOL      0.675862
     56 O9          2.5530   -2.8360   -5.6940 o         1 MOL     -0.562840
     57 H25         4.9010   -3.7910   -2.3860 hn        1 MOL      0.265029
     58 H26         4.5940   -3.9440   -4.7070 h1        1 MOL      0.177010
     59 H27         5.1250   -2.2030   -4.8240 h1        1 MOL      0.177010
     60 N6          2.1970   -2.1720   -3.5870 n         1 MOL     -0.578672
     61 C19         0.8400   -1.6150   -3.5780 c3        1 MOL      0.325613
     62 C20         0.7270   -0.6990   -2.3400 c         1 MOL      0.257862
     63 O10         0.2420   -1.0420   -1.2730 o         1 MOL     -0.287406
     64 C21        -0.2200   -2.7580   -3.6690 c3        1 MOL     -0.489236
     65 C22         0.1640   -4.0580   -2.8820 c         1 MOL      0.850220
     66 N7          0.1770   -5.1460   -3.5510 n         1 MOL     -0.776168
     67 O11         0.2580   -4.0800   -1.6920 o         1 MOL     -0.665031
     68 H28         2.6040   -2.2560   -2.6650 hn        1 MOL      0.304646
     69 H29         0.7490   -0.9640   -4.4540 h1        1 MOL      0.035622
     70 H30        -0.3920   -3.0440   -4.6980 hc        1 MOL      0.135809
     71 H31        -1.1630   -2.3420   -3.3190 hc        1 MOL      0.135809
     72 H32        -0.0820   -5.0730   -4.5250 hn        1 MOL      0.361470
     73 H33         0.1910   -6.0430   -3.0950 hn        1 MOL      0.361470
     74 N8          1.1520    0.5230   -2.5590 n         1 MOL     -0.383947
     75 C23         1.2130    1.5350   -1.4960 c3        1 MOL      0.003787
     76 C24        -0.1340    1.9530   -0.9340 c         1 MOL      0.546136
     77 O12        -1.0830    1.4800   -1.5670 o         1 MOL     -0.488494
     78 H34         1.3080    0.7600   -3.5370 hn        1 MOL      0.303583
     79 H35         1.6420    2.4400   -1.9250 h1        1 MOL      0.079965
     80 H36         1.9150    1.2610   -0.7110 h1        1 MOL      0.079965
     81 N9         -0.3760    2.8540    0.0410 n         1 MOL     -0.576014
     82 C25        -1.7430    3.3880    0.2970 c3        1 MOL      0.152873
     83 C26        -2.6810    2.3700    0.8180 c         1 MOL      0.450279
     84 O13        -2.3610    1.2240    1.0490 o         1 MOL     -0.422586
     85 C27        -1.6680    4.5520    1.2950 c3        1 MOL     -0.101298
     86 C28        -0.6890    5.6250    0.9240 ca        1 MOL     -0.101287
     87 C29         0.5320    5.7380    1.7530 ca        1 MOL     -0.043915
     88 C30        -0.8740    6.4750   -0.1730 ca        1 MOL     -0.043915
     89 C31         1.3910    6.6950    1.3480 ca        1 MOL     -0.335981
     90 C32         0.1260    7.3880   -0.5830 ca        1 MOL     -0.335981
     91 C33         1.3050    7.4730    0.1980 ca        1 MOL      0.409371
     92 O14         2.2790    8.3630   -0.0960 oh        1 MOL     -0.452445
     93 H37         0.3770    3.3590    0.4870 hn        1 MOL      0.319976
     94 H38        -2.1440    3.9090   -0.5760 h1        1 MOL      0.039768
     95 H39        -1.4690    4.1570    2.2870 hc        1 MOL      0.057412
     96 H40        -2.6590    4.9860    1.2430 hc        1 MOL      0.057412
     97 H41         0.6390    5.2130    2.6900 ha        1 MOL      0.115292
     98 H42        -1.7970    6.3190   -0.7140 ha        1 MOL      0.115292
     99 H43         2.3480    6.6900    1.8440 ha        1 MOL      0.165191
    100 H44         0.0770    7.7730   -1.5900 ha        1 MOL      0.165191
    101 H45         1.8660    8.8190   -0.8250 ho        1 MOL      0.351206
    102 N10        -3.9470    2.8060    0.9190 n         1 MOL     -0.446556
    103 C34        -5.0440    2.0220    1.4520 c3        1 MOL     -0.026516
    104 C35        -6.3730    2.1250    0.6150 c         1 MOL      0.597161
    105 O15        -7.1440    1.1920    0.6030 o         1 MOL     -0.493907
    106 C36        -5.2090    2.2690    2.9950 c3        1 MOL      0.121294
    107 C37        -5.1000    3.7370    3.5280 c3        1 MOL      0.005660
    108 C38        -4.2350    1.3680    3.8050 c3        1 MOL     -0.234858
    109 C39        -6.0240    4.7140    2.8640 c3        1 MOL      0.056611
    110 H46        -4.0480    3.7450    0.5640 hn        1 MOL      0.246490
    111 H47        -4.8560    0.9690    1.3000 h1        1 MOL      0.160145
    112 H48        -6.2150    1.9020    3.1980 hc        1 MOL      0.004852
    113 H49        -4.0970    4.0160    3.1960 hc        1 MOL      0.001891
    114 H50        -5.3270    3.7520    4.5980 hc        1 MOL      0.001891
    115 H51        -4.2810    0.3910    3.3240 hc        1 MOL      0.052544
    116 H52        -3.2060    1.7170    3.6880 hc        1 MOL      0.052544
    117 H53        -4.4970    1.3500    4.8620 hc        1 MOL      0.052544
    118 H54        -7.0350    4.3260    2.7520 hc        1 MOL     -0.025590
    119 H55        -6.0980    5.6060    3.4840 hc        1 MOL     -0.025590
    120 H56        -5.5740    5.0390    1.9270 hc        1 MOL     -0.025590
    121 N11        -6.5240    3.1920   -0.1120 n         1 MOL     -0.531421
    122 C40        -7.8740    3.5130   -0.6620 c3        1 MOL      0.053782
    123 C41        -8.5330    2.3470   -1.4090 c         1 MOL      0.387007
    124 O16        -7.9000    1.8350   -2.3450 o         1 MOL     -0.459100
    125 C42        -8.7590    4.2820    0.3130 c3        1 MOL      0.183062
    126 O17        -9.2180    3.3670    1.3220 oh        1 MOL     -0.591851
    127 H57        -5.7780    3.8790   -0.1790 hn        1 MOL      0.330204
    128 H58        -7.7960    4.2440   -1.4730 h1        1 MOL      0.085351
    129 H59        -9.5900    4.6840   -0.2680 h1        1 MOL     -0.002472
    130 H60        -8.1610    5.0810    0.7610 h1        1 MOL     -0.002472
    131 H61        -9.5780    3.8330    2.0810 ho        1 MOL      0.414644
    132 N12        -9.7380    1.8740   -0.9470 n         1 MOL     -0.345246
    133 C43       -10.5530    0.7950   -1.6160 c3        1 MOL      0.218359
    134 C44        -9.7180   -0.4580   -1.9440 c         1 MOL      0.442877
    135 O18        -9.8770   -1.1340   -2.9960 o         1 MOL     -0.525292
    136 C45       -11.2350    1.5150   -2.7700 c3        1 MOL     -0.306517
    137 H62       -10.1200    2.4030   -0.1860 hn        1 MOL      0.254501
    138 H63       -11.2890    0.5410   -0.8510 h1        1 MOL      0.035789
    139 H64       -10.4840    1.9500   -3.4270 hc        1 MOL      0.083993
    140 H65       -11.8200    0.7410   -3.2650 hc        1 MOL      0.083993
    141 H66       -11.9000    2.3220   -2.4330 hc        1 MOL      0.083993
    142 N13        -8.8530   -0.8800   -1.0550 n         1 MOL     -0.486243
    143 C46        -8.0790   -2.1350   -1.2460 c3        1 MOL      0.451180
    144 C47        -7.5530   -2.6690    0.0720 c         1 MOL      0.344580
    145 O19        -7.4100   -1.9120    1.0500 o         1 MOL     -0.505149
    146 C48        -6.9180   -1.9330   -2.2320 c3        1 MOL     -0.435688
    147 H67        -8.6650   -0.4410   -0.1690 hn        1 MOL      0.268779
    148 H68        -8.7610   -2.9040   -1.6000 h1        1 MOL     -0.035259
    149 H69        -7.2860   -1.5470   -3.1770 hc        1 MOL      0.140556
    150 H70        -6.2790   -1.1350   -1.8450 hc        1 MOL      0.140556
    151 H71        -6.3050   -2.8150   -2.4230 hc        1 MOL      0.140556
    152 N14        -7.0760   -3.9440    0.1070 n         1 MOL     -0.516010
    153 C49        -6.3860   -4.6280    1.2510 c3        1 MOL     -0.025802
    154 C50        -7.2180   -4.8160    2.4900 c         1 MOL      0.538958
    155 O20        -7.3800   -5.9220    3.0060 o         1 MOL     -0.561005
    156 C51        -5.1250   -3.8440    1.6030 c3        1 MOL      0.017672
    157 C52        -4.0400   -4.3790    0.6290 c3        1 MOL      0.191398
    158 C53        -2.6130   -3.5930    0.6340 c         1 MOL      0.576956
    159 O21        -1.8670   -3.7120    1.6780 o         1 MOL     -0.759520
    160 O22        -2.1720   -2.9730   -0.3430 o         1 MOL     -0.759520
    161 H72        -7.0900   -4.3960   -0.7920 hn        1 MOL      0.325078
    162 H73        -6.1820   -5.6410    0.8900 h1        1 MOL      0.090449
    163 H74        -4.8340   -3.9420    2.6490 hc        1 MOL      0.016552
    164 H75        -5.2570   -2.7670    1.5200 hc        1 MOL      0.016552
    165 H76        -4.3970   -4.3590   -0.4000 hc        1 MOL     -0.070715
    166 H77        -3.8170   -5.4100    0.9030 hc        1 MOL     -0.070715
    167 N15        -7.8920   -3.7540    2.9460 n         1 MOL     -0.350585
    168 C54        -8.5640   -3.7460    4.2930 c3        1 MOL     -0.008856
    169 H78        -9.5630   -3.3230    4.1980 h1        1 MOL      0.045492
    170 H79        -8.6360   -4.7670    4.6690 h1        1 MOL      0.045492
    171 H80        -7.9790   -3.1440    4.9880 h1        1 MOL      0.045492
    172 H81        -7.9380   -2.9320    2.3580 hn        1 MOL      0.278274
    173 Ca1         0.4450   -2.9740    0.7080 Ca        1 MOL      1.784524
    174 O23        -1.0540   -0.8400    1.7630 oh        1 MOL     -0.870999
    175 H82        -1.6300   -0.2890    1.2260 ho        1 MOL      0.426737
    176 H83        -1.4830   -0.8540    2.6190 ho        1 MOL      0.426737
    177 O24         1.1880   -2.7450    3.5180 oh        1 MOL     -0.870999
    178 H84         2.0050   -2.2920    3.7020 ho        1 MOL      0.426737
    179 H85         0.9990   -3.2360    4.3230 ho        1 MOL      0.426737
    180 O25         2.0050   -4.9480    1.4600 oh        1 MOL     -0.870999
    181 H86         2.4620   -5.0280    2.3020 ho        1 MOL      0.426737
    182 H87         2.3720   -5.6550    0.9180 ho        1 MOL      0.426737
@<TRIPOS>BOND
     1    1    2 1   
     2    1    4 1   
     3    1    5 1   
     4    1    6 1   
     5    2    3 2   
     6    2    7 1   
     7    7    8 1   
     8    7   15 1   
     9    8    9 1   
    10    8   11 1   
    11    8   16 1   
    12    9   10 2   
    13    9   19 1   
    14   11   12 1   
    15   11   17 1   
    16   11   18 1   
    17   12   13 1   
    18   12   14 1   
    19   19   20 1   
    20   19   28 1   
    21   20   21 1   
    22   20   23 1   
    23   20   29 1   
    24   21   22 2   
    25   21   41 1   
    26   23   24 1   
    27   23   30 1   
    28   23   31 1   
    29   24   25 1   
    30   24   32 1   
    31   24   33 1   
    32   25   26 1   
    33   25   34 1   
    34   25   35 1   
    35   26   27 1   
    36   26   36 1   
    37   26   37 1   
    38   27   38 1   
    39   27   39 1   
    40   27   40 1   
    41   41   42 1   
    42   41   49 1   
    43   42   43 1   
    44   42   45 1   
    45   42   50 1   
    46   43   44 2   
    47   43   53 1   
    48   45   46 1   
    49   45   51 1   
    50   45   52 1   
    51   46   47 1   
    52   46   48 1   
    53   53   54 1   
    54   53   57 1   
    55   54   55 1   
    56   54   58 1   
    57   54   59 1   
    58   55   56 2   
    59   55   60 1   
    60   60   61 1   
    61   60   68 1   
    62   61   62 1   
    63   61   64 1   
    64   61   69 1   
    65   62   63 2   
    66   62   74 1   
    67   64   65 1   
    68   64   70 1   
    69   64   71 1   
    70   65   66 1   
    71   65   67 2   
    72   66   72 1   
    73   66   73 1   
    74   74   75 1   
    75   74   78 1   
    76   75   76 1   
    77   75   79 1   
    78   75   80 1   
    79   76   77 2   
    80   76   81 1   
    81   81   82 1   
    82   81   93 1   
    83   82   83 1   
    84   82   85 1   
    85   82   94 1   
    86   83   84 2   
    87   83  102 1   
    88   85   86 1   
    89   85   95 1   
    90   85   96 1   
    91   86   87 ar  
    92   86   88 ar  
    93   87   89 ar  
    94   87   97 1   
    95   88   90 ar  
    96   88   98 1   
    97   89   91 ar  
    98   89   99 1   
    99   90   91 ar  
   100   90  100 1   
   101   91   92 1   
   102   92  101 1   
   103  102  103 1   
   104  102  110 1   
   105  103  104 1   
   106  103  106 1   
   107  103  111 1   
   108  104  105 2   
   109  104  121 1   
   110  106  107 1   
   111  106  108 1   
   112  106  112 1   
   113  107  109 1   
   114  107  113 1   
   115  107  114 1   
   116  108  115 1   
   117  108  116 1   
   118  108  117 1   
   119  109  118 1   
   120  109  119 1   
   121  109  120 1   
   122  121  122 1   
   123  121  127 1   
   124  122  123 1   
   125  122  125 1   
   126  122  128 1   
   127  123  124 2   
   128  123  132 1   
   129  125  126 1   
   130  125  129 1   
   131  125  130 1   
   132  126  131 1   
   133  132  133 1   
   134  132  137 1   
   135  133  134 1   
   136  133  136 1   
   137  133  138 1   
   138  134  135 2   
   139  134  142 1   
   140  136  139 1   
   141  136  140 1   
   142  136  141 1   
   143  142  143 1   
   144  142  147 1   
   145  143  144 1   
   146  143  146 1   
   147  143  148 1   
   148  144  145 2   
   149  144  152 1   
   150  146  149 1   
   151  146  150 1   
   152  146  151 1   
   153  152  153 1   
   154  152  161 1   
   155  153  154 1   
   156  153  156 1   
   157  153  162 1   
   158  154  155 2   
   159  154  167 1   
   160  156  157 1   
   161  156  163 1   
   162  156  164 1   
   163  157  158 1   
   164  157  165 1   
   165  157  166 1   
   166  158  159 1   
   167  158  160 1   
   168  167  168 1   
   169  167  172 1   
   170  168  169 1   
   171  168  170 1   
   172  168  171 1   
   173  174  175 1   
   174  174  176 1   
   175  177  178 1   
   176  177  179 1   
   177  180  181 1   
   178  180  182 1   
@<TRIPOS>SUBSTRUCTURE
     1 MOL         1 TEMP              0 ****  ****    0 ROOT
