@<TRIPOS>MOLECULE
MOL
  195   189     1     0     0
SMALL
resp


@<TRIPOS>ATOM
      1 C1         -2.8310   -4.8620    2.6200 c3        1 MOL     -0.542801
      2 C2         -1.9360   -4.4260    1.4740 c         1 MOL      0.396253
      3 O1         -1.7990   -3.2270    1.2950 o         1 MOL     -0.380348
      4 H1         -3.7960   -4.3620    2.5380 hc        1 MOL      0.135831
      5 H2         -2.9770   -5.9410    2.5770 hc        1 MOL      0.135831
      6 H3         -2.3640   -4.5960    3.5690 hc        1 MOL      0.135831
      7 N1         -1.4430   -5.3620    0.6870 n         1 MOL     -0.414554
      8 C3         -0.6520   -5.0630   -0.5410 c3        1 MOL     -0.071294
      9 C4          0.7370   -4.3430   -0.2070 c         1 MOL      0.504004
     10 O2          1.1960   -3.4600   -0.9320 o         1 MOL     -0.525779
     11 C5         -1.4970   -4.4470   -1.6810 c3        1 MOL     -0.029602
     12 C6         -2.7760   -5.1820   -1.8160 c         1 MOL      0.399491
     13 O3         -2.7340   -6.2440   -2.5200 o         1 MOL     -0.615043
     14 O4         -3.7850   -4.5470   -1.4820 o         1 MOL     -0.615043
     15 H4         -1.7770   -6.2910    0.9060 hn        1 MOL      0.333007
     16 H5         -0.2520   -6.0410   -0.8240 h1        1 MOL      0.105146
     17 H6         -0.9600   -4.6130   -2.6210 hc        1 MOL      0.028185
     18 H7         -1.6850   -3.3880   -1.4790 hc        1 MOL      0.028185
     19 N2          1.3480   -4.8080    0.9130 n         1 MOL     -0.292009
     20 C7          2.6400   -4.2790    1.4950 c3        1 MOL     -0.127359
     21 C8          3.8120   -5.3110    1.6100 c         1 MOL      0.429346
     22 O5          3.5920   -6.5160    1.5430 o         1 MOL     -0.558932
     23 C9          2.3960   -3.4750    2.7970 c3        1 MOL      0.256280
     24 C10         1.8230   -4.3260    3.9180 c3        1 MOL      0.092097
     25 C11         1.5030   -2.3100    2.4150 c3        1 MOL      0.017312
     26 C12         1.2540   -3.6080    5.1820 c3        1 MOL     -0.088855
     27 H8          1.0440   -5.6960    1.2590 hn        1 MOL      0.211555
     28 H9          3.0180   -3.5680    0.7580 h1        1 MOL      0.168476
     29 H10         3.3170   -3.0320    3.1920 hc        1 MOL      0.003568
     30 H11         2.6790   -4.8970    4.2670 hc        1 MOL     -0.023920
     31 H12         1.0430   -5.0540    3.6720 hc        1 MOL     -0.023920
     32 H13         0.5050   -2.6100    2.0850 hc        1 MOL     -0.035550
     33 H14         1.4330   -1.6690    3.2840 hc        1 MOL     -0.035550
     34 H15         2.0160   -1.7160    1.6610 hc        1 MOL     -0.035550
     35 H16         0.3920   -2.9470    5.1740 hc        1 MOL      0.017042
     36 H17         0.8460   -4.4320    5.7600 hc        1 MOL      0.017042
     37 H18         2.0260   -3.0720    5.7400 hc        1 MOL      0.017042
     38 N3          5.0660   -4.9080    1.8180 n         1 MOL     -0.377451
     39 C13         5.6380   -3.5420    1.7100 c3        1 MOL      0.018305
     40 C14         5.4690   -3.0320    0.3030 c         1 MOL      0.279357
     41 O6          5.1210   -1.8510    0.0960 o         1 MOL     -0.477850
     42 C15         7.1050   -3.4580    2.1620 c3        1 MOL     -0.153462
     43 C16         7.3560   -3.9300    3.5850 c         1 MOL      0.680838
     44 O7          8.4260   -4.6110    3.7760 o         1 MOL     -0.708964
     45 O8          6.5930   -3.5510    4.4880 o         1 MOL     -0.708964
     46 H19         5.7180   -5.6260    2.0950 hn        1 MOL      0.291902
     47 H20         5.0670   -2.8740    2.3520 h1        1 MOL      0.062033
     48 H21         7.4490   -2.4380    1.9830 hc        1 MOL      0.031478
     49 H22         7.6790   -4.0210    1.4240 hc        1 MOL      0.031478
     50 N4          5.8020   -3.9190   -0.6940 n         1 MOL     -0.148373
     51 C17         5.7330   -3.5480   -2.1110 c3        1 MOL     -0.436203
     52 C18         6.8560   -2.6510   -2.5460 c         1 MOL      0.678923
     53 O9          7.9170   -3.1170   -2.7320 o         1 MOL     -0.574149
     54 H23         5.9160   -4.8800   -0.3970 hn        1 MOL      0.248442
     55 H24         4.7660   -3.0620   -2.2400 h1        1 MOL      0.162690
     56 H25         5.7540   -4.4140   -2.7780 h1        1 MOL      0.162690
     57 N5          6.6280   -1.3530   -2.8390 n         1 MOL     -0.514961
     58 C19         7.6860   -0.3570   -3.1640 c3        1 MOL      0.192674
     59 C20         8.1370    0.3220   -1.9170 c         1 MOL      0.349105
     60 O10         9.1760    0.9950   -2.0540 o         1 MOL     -0.527725
     61 C21         7.0810    0.6290   -4.2010 c3        1 MOL     -0.359822
     62 C22         5.7140    1.1510   -3.8350 c         1 MOL      0.720698
     63 O11         4.7480    1.1880   -4.6360 o         1 MOL     -0.689637
     64 O12         5.5120    1.5820   -2.6660 o         1 MOL     -0.689637
     65 H26         5.6650   -1.1290   -3.0440 hn        1 MOL      0.291430
     66 H27         8.5630   -0.7820   -3.6600 h1        1 MOL      0.077429
     67 H28         7.0510    0.0480   -5.1290 hc        1 MOL      0.076927
     68 H29         7.7280    1.4710   -4.4600 hc        1 MOL      0.076927
     69 N6          7.4060    0.1700   -0.7190 n         1 MOL     -0.159957
     70 C23         7.7450    0.8930    0.5300 c3        1 MOL     -0.302423
     71 C24         7.3010    2.3320    0.6420 c         1 MOL      0.566279
     72 O13         7.6100    3.0440    1.6580 o         1 MOL     -0.583061
     73 H30         6.5330   -0.3210   -0.7550 hn        1 MOL      0.245319
     74 H31         8.8220    0.9360    0.6640 h1        1 MOL      0.146639
     75 H32         7.2390    0.2880    1.2890 h1        1 MOL      0.146639
     76 N7          6.4460    2.7850   -0.3380 n         1 MOL     -0.241399
     77 C25         5.8370    4.1260   -0.4690 c3        1 MOL      0.024153
     78 C26         4.9570    4.5390    0.7210 c         1 MOL      0.332603
     79 O14         4.5750    5.6610    0.8130 o         1 MOL     -0.475925
     80 C27         6.7720    5.2520   -0.8830 c3        1 MOL      0.073023
     81 C28         7.4130    4.8960   -2.2460 c3        1 MOL     -0.268672
     82 C29         8.4660    5.8500   -2.8110 c         1 MOL      0.714406
     83 N8          8.9990    5.6090   -3.9830 n         1 MOL     -0.838271
     84 O15         8.9420    6.7250   -2.1330 o         1 MOL     -0.577722
     85 H33         6.0620    2.1800   -1.0490 hn        1 MOL      0.160967
     86 H34         5.1020    3.9850   -1.2620 h1        1 MOL      0.093923
     87 H35         7.5210    5.4810   -0.1180 hc        1 MOL      0.011773
     88 H36         6.2310    6.1870   -0.9760 hc        1 MOL      0.011773
     89 H37         6.5930    4.8370   -2.9560 hc        1 MOL      0.085504
     90 H38         7.7990    3.8770   -2.2020 hc        1 MOL      0.085504
     91 H39         8.6100    4.8730   -4.5550 hn        1 MOL      0.357441
     92 H40         9.7830    6.1190   -4.3700 hn        1 MOL      0.357441
     93 N9          4.6060    3.5500    1.5700 n         1 MOL     -0.072083
     94 C30         3.6210    3.7320    2.6580 c3        1 MOL     -0.351396
     95 C31         2.1540    3.5420    2.2350 c         1 MOL      0.662821
     96 O16         1.2590    4.1910    2.8250 o         1 MOL     -0.580494
     97 C32         3.9510    2.9180    3.9020 c3        1 MOL      0.193192
     98 C33         4.1830    1.4220    3.6040 c3        1 MOL     -0.166709
     99 C34         5.2400    3.4440    4.5600 c3        1 MOL     -0.166709
    100 H41         4.8940    2.5870    1.3870 hn        1 MOL      0.209277
    101 H42         3.7290    4.7800    2.9680 h1        1 MOL      0.146272
    102 H43         3.2150    3.0000    4.6980 hc        1 MOL      0.004532
    103 H44         3.3100    0.9670    3.1530 hc        1 MOL      0.038263
    104 H45         5.0200    1.3170    2.9060 hc        1 MOL      0.038263
    105 H46         4.4220    0.8810    4.5200 hc        1 MOL      0.038263
    106 H47         5.1450    4.4670    4.9440 hc        1 MOL      0.038263
    107 H48         5.4630    2.8360    5.4370 hc        1 MOL      0.038263
    108 H49         6.1100    3.4140    3.9140 hc        1 MOL      0.038263
    109 N10         1.8560    2.7520    1.2150 n         1 MOL     -0.403284
    110 C35         0.5010    2.2570    0.8570 c3        1 MOL     -0.011787
    111 C36        -0.2630    3.1670   -0.1250 c         1 MOL      0.764237
    112 O17         0.3710    4.0040   -0.7740 o         1 MOL     -0.566099
    113 C37         0.7370    0.7870    0.3940 c3        1 MOL     -0.141914
    114 C38        -0.4890   -0.1120    0.5430 c         1 MOL      0.514654
    115 N11        -0.4480   -1.3240    0.0920 n         1 MOL     -0.580012
    116 O18        -1.5030    0.3410    1.0270 o         1 MOL     -0.544704
    117 H50         2.6530    2.2400    0.8680 hn        1 MOL      0.181251
    118 H51        -0.0400    2.2950    1.8060 h1        1 MOL      0.071156
    119 H52         1.4390    0.3270    1.0930 hc        1 MOL      0.074630
    120 H53         1.2430    0.5960   -0.5530 hc        1 MOL      0.074630
    121 H54         0.3640   -1.6900   -0.3790 hn        1 MOL      0.334644
    122 H55        -1.2540   -1.8890    0.3120 hn        1 MOL      0.334644
    123 N12        -1.5690    3.0710   -0.1520 n         1 MOL     -0.619042
    124 C39        -2.5200    3.7120   -1.0210 c3        1 MOL      0.105947
    125 C40        -3.9400    3.7660   -0.3740 c         1 MOL      0.839538
    126 O19        -4.3350    2.7880    0.2860 o         1 MOL     -0.623813
    127 C41        -2.4730    3.1090   -2.4470 c3        1 MOL     -0.345655
    128 C42        -3.0460    1.7280   -2.5670 ca        1 MOL     -0.033535
    129 C43        -2.1550    0.6090   -2.3410 ca        1 MOL      0.003245
    130 C44        -4.4320    1.4970   -2.7440 ca        1 MOL      0.003245
    131 C45        -2.6090   -0.7030   -2.5460 ca        1 MOL     -0.429911
    132 C46        -4.9440    0.1430   -2.7160 ca        1 MOL     -0.429911
    133 C47        -4.0030   -0.9460   -2.6390 ca        1 MOL      0.426574
    134 O20        -4.5780   -2.1720   -2.4980 oh        1 MOL     -0.588485
    135 H56        -1.9500    2.2370    0.2850 hn        1 MOL      0.281162
    136 H57        -2.1860    4.7410   -1.1840 h1        1 MOL      0.056344
    137 H58        -1.4170    3.0320   -2.7200 hc        1 MOL      0.133706
    138 H59        -2.9770    3.6680   -3.2290 hc        1 MOL      0.133706
    139 H60        -1.0870    0.7670   -2.3420 ha        1 MOL      0.092934
    140 H61        -5.0850    2.3410   -2.8850 ha        1 MOL      0.092934
    141 H62        -1.9410   -1.5250   -2.3190 ha        1 MOL      0.198137
    142 H63        -6.0040   -0.0360   -2.7930 ha        1 MOL      0.198137
    143 H64        -3.8550   -2.7770   -2.3010 ho        1 MOL      0.484442
    144 N13        -4.7170    4.8060   -0.4870 n         1 MOL     -0.816058
    145 C48        -6.0760    4.9170    0.0340 c3        1 MOL      0.247215
    146 C49        -7.2310    4.5600   -0.8990 c         1 MOL      0.561978
    147 O21        -7.6890    5.3920   -1.6950 o         1 MOL     -0.576618
    148 C50        -6.1780    6.2560    0.8290 c3        1 MOL      0.093171
    149 C51        -7.5670    6.7730    1.1950 c3        1 MOL     -0.383569
    150 C52        -7.4670    8.0350    2.0590 c         1 MOL      0.740678
    151 O22        -8.1030    9.1040    1.7410 o         1 MOL     -0.702322
    152 O23        -6.7530    7.9570    3.0880 o         1 MOL     -0.702322
    153 H65        -4.4600    5.5300   -1.1340 hn        1 MOL      0.342602
    154 H66        -6.2170    4.2640    0.8960 h1        1 MOL      0.000566
    155 H67        -5.7000    7.1240    0.3610 hc        1 MOL      0.026042
    156 H68        -5.6150    6.1800    1.7680 hc        1 MOL      0.026042
    157 H69        -7.9830    6.0040    1.8440 hc        1 MOL      0.075887
    158 H70        -8.1190    6.9150    0.2620 hc        1 MOL      0.075887
    159 N14        -7.9400    3.4710   -0.7000 n         1 MOL     -0.541759
    160 C53        -7.5370    2.2110    0.0070 c3        1 MOL     -0.055693
    161 C54        -7.9010    2.2210    1.4830 c         1 MOL      0.677367
    162 O24        -9.0020    2.6770    1.8250 o         1 MOL     -0.555431
    163 C55        -8.1840    1.0040   -0.7540 c3        1 MOL      0.039810
    164 C56        -7.8730   -0.3700   -0.1530 c3        1 MOL     -0.258073
    165 C57        -8.3910   -1.4870   -1.1140 c         1 MOL      0.672525
    166 O25        -9.6390   -1.4690   -1.3960 o         1 MOL     -0.702456
    167 O26        -7.6980   -2.4330   -1.5460 o         1 MOL     -0.702456
    168 H71        -8.7500    3.4210   -1.3070 hn        1 MOL      0.308197
    169 H72        -6.4620    2.0450   -0.0870 h1        1 MOL      0.142229
    170 H73        -7.8570    0.9850   -1.7960 hc        1 MOL      0.044442
    171 H74        -9.2370    1.2170   -0.6300 hc        1 MOL      0.044442
    172 H75        -8.3400   -0.4190    0.8330 hc        1 MOL      0.024358
    173 H76        -6.7970   -0.5210   -0.0190 hc        1 MOL      0.024358
    174 N15        -7.0690    1.5540    2.3350 n         1 MOL     -0.447855
    175 C58        -7.3770    1.3810    3.8080 c3        1 MOL      0.011564
    176 H77        -8.4220    1.6330    3.9920 h1        1 MOL      0.047056
    177 H78        -7.1970    0.3460    4.0970 h1        1 MOL      0.047056
    178 H79        -6.7360    2.0390    4.3950 h1        1 MOL      0.047056
    179 H80        -6.1410    1.3920    1.9530 hn        1 MOL      0.296628
    180 Ca1        -6.2340   -4.4160   -0.7430 Ca        1 MOL      1.689657
    181 O27        -5.7370   -4.8400   -3.4260 oh        1 MOL     -0.817805
    182 H81        -5.2720   -5.5750   -3.8180 ho        1 MOL      0.398930
    183 H82        -5.1850   -4.0740   -3.6300 ho        1 MOL      0.398930
    184 O28        -6.1030   -7.0620   -1.5430 oh        1 MOL     -0.817805
    185 H83        -5.7080   -7.8250   -1.1170 ho        1 MOL      0.398930
    186 H84        -5.8070   -7.1140   -2.4520 ho        1 MOL      0.398930
    187 O29        -8.2690   -4.3670    0.9860 oh        1 MOL     -0.817805
    188 H85        -8.8420   -3.7630    1.4550 ho        1 MOL      0.398930
    189 H86        -8.5680   -5.2340    1.2300 ho        1 MOL      0.398930
    190 O30        -5.2310   -2.5900    0.8630 oh        1 MOL     -0.817805
    191 H87        -4.7910   -1.7410    0.7460 ho        1 MOL      0.398930
    192 H88        -5.2770   -2.7030    1.8150 ho        1 MOL      0.398930
    193 O31        -8.2440   -5.3510   -1.9430 oh        1 MOL     -0.817805
    194 H89        -9.1180   -5.5900   -1.6520 ho        1 MOL      0.398930
    195 H90        -8.3910   -4.6960   -2.6300 ho        1 MOL      0.398930
@<TRIPOS>BOND
     1    1    2 1   
     2    1    4 1   
     3    1    5 1   
     4    1    6 1   
     5    2    3 2   
     6    2    7 1   
     7    7    8 1   
     8    7   15 1   
     9    8    9 1   
    10    8   11 1   
    11    8   16 1   
    12    9   10 2   
    13    9   19 1   
    14   11   12 1   
    15   11   17 1   
    16   11   18 1   
    17   12   13 1   
    18   12   14 1   
    19   19   20 1   
    20   19   27 1   
    21   20   21 1   
    22   20   23 1   
    23   20   28 1   
    24   21   22 2   
    25   21   38 1   
    26   23   24 1   
    27   23   25 1   
    28   23   29 1   
    29   24   26 1   
    30   24   30 1   
    31   24   31 1   
    32   25   32 1   
    33   25   33 1   
    34   25   34 1   
    35   26   35 1   
    36   26   36 1   
    37   26   37 1   
    38   38   39 1   
    39   38   46 1   
    40   39   40 1   
    41   39   42 1   
    42   39   47 1   
    43   40   41 2   
    44   40   50 1   
    45   42   43 1   
    46   42   48 1   
    47   42   49 1   
    48   43   44 1   
    49   43   45 1   
    50   50   51 1   
    51   50   54 1   
    52   51   52 1   
    53   51   55 1   
    54   51   56 1   
    55   52   53 2   
    56   52   57 1   
    57   57   58 1   
    58   57   65 1   
    59   58   59 1   
    60   58   61 1   
    61   58   66 1   
    62   59   60 2   
    63   59   69 1   
    64   61   62 1   
    65   61   67 1   
    66   61   68 1   
    67   62   63 1   
    68   62   64 1   
    69   69   70 1   
    70   69   73 1   
    71   70   71 1   
    72   70   74 1   
    73   70   75 1   
    74   71   72 2   
    75   71   76 1   
    76   76   77 1   
    77   76   85 1   
    78   77   78 1   
    79   77   80 1   
    80   77   86 1   
    81   78   79 2   
    82   78   93 1   
    83   80   81 1   
    84   80   87 1   
    85   80   88 1   
    86   81   82 1   
    87   81   89 1   
    88   81   90 1   
    89   82   83 1   
    90   82   84 2   
    91   83   91 1   
    92   83   92 1   
    93   93   94 1   
    94   93  100 1   
    95   94   95 1   
    96   94   97 1   
    97   94  101 1   
    98   95   96 2   
    99   95  109 1   
   100   97   98 1   
   101   97   99 1   
   102   97  102 1   
   103   98  103 1   
   104   98  104 1   
   105   98  105 1   
   106   99  106 1   
   107   99  107 1   
   108   99  108 1   
   109  109  110 1   
   110  109  117 1   
   111  110  111 1   
   112  110  113 1   
   113  110  118 1   
   114  111  112 2   
   115  111  123 1   
   116  113  114 1   
   117  113  119 1   
   118  113  120 1   
   119  114  115 1   
   120  114  116 2   
   121  115  121 1   
   122  115  122 1   
   123  123  124 1   
   124  123  135 1   
   125  124  125 1   
   126  124  127 1   
   127  124  136 1   
   128  125  126 2   
   129  125  144 1   
   130  127  128 1   
   131  127  137 1   
   132  127  138 1   
   133  128  129 ar  
   134  128  130 ar  
   135  129  131 ar  
   136  129  139 1   
   137  130  132 ar  
   138  130  140 1   
   139  131  133 ar  
   140  131  141 1   
   141  132  133 ar  
   142  132  142 1   
   143  133  134 1   
   144  134  143 1   
   145  144  145 1   
   146  144  153 1   
   147  145  146 1   
   148  145  148 1   
   149  145  154 1   
   150  146  147 2   
   151  146  159 1   
   152  148  149 1   
   153  148  155 1   
   154  148  156 1   
   155  149  150 1   
   156  149  157 1   
   157  149  158 1   
   158  150  151 1   
   159  150  152 1   
   160  159  160 1   
   161  159  168 1   
   162  160  161 1   
   163  160  163 1   
   164  160  169 1   
   165  161  162 2   
   166  161  174 1   
   167  163  164 1   
   168  163  170 1   
   169  163  171 1   
   170  164  165 1   
   171  164  172 1   
   172  164  173 1   
   173  165  166 1   
   174  165  167 1   
   175  174  175 1   
   176  174  179 1   
   177  175  176 1   
   178  175  177 1   
   179  175  178 1   
   180  181  182 1   
   181  181  183 1   
   182  184  185 1   
   183  184  186 1   
   184  187  188 1   
   185  187  189 1   
   186  190  191 1   
   187  190  192 1   
   188  193  194 1   
   189  193  195 1   
@<TRIPOS>SUBSTRUCTURE
     1 MOL         1 TEMP              0 ****  ****    0 ROOT
