@<TRIPOS>MOLECULE
MOL
  181   177     1     0     0
SMALL
resp


@<TRIPOS>ATOM
      1 C1         -0.9850    6.6480    2.7970 c3        1 MOL     -0.374036
      2 C2         -2.0200    6.2950    1.8250 c         1 MOL      0.682789
      3 O1         -1.7170    6.3860    0.6170 o         1 MOL     -0.581442
      4 H1         -0.1780    5.9170    2.7480 hc        1 MOL      0.084706
      5 H2         -0.5920    7.6380    2.5670 hc        1 MOL      0.084706
      6 H3         -1.4130    6.6500    3.7990 hc        1 MOL      0.084706
      7 N1         -3.1930    5.8660    2.2660 n         1 MOL     -0.554745
      8 C3         -4.4080    5.7680    1.3400 c3        1 MOL      0.077306
      9 C4         -4.2610    4.7060    0.1550 c         1 MOL      0.734221
     10 O2         -3.7530    3.5950    0.3270 o         1 MOL     -0.582806
     11 C5         -5.6340    5.4460    2.1970 c3        1 MOL     -0.176628
     12 C6         -6.9480    5.9140    1.5320 c         1 MOL      0.739395
     13 O3         -7.0010    6.5350    0.4640 o         1 MOL     -0.731636
     14 O4         -8.0000    5.5070    2.0820 o         1 MOL     -0.731636
     15 H4         -3.3920    5.5680    3.2090 hn        1 MOL      0.311629
     16 H5         -4.6060    6.7670    0.9480 h1        1 MOL      0.045886
     17 H6         -5.5770    6.0550    3.1000 hc        1 MOL      0.019227
     18 H7         -5.6660    4.4180    2.5620 hc        1 MOL      0.019227
     19 N2         -4.9290    5.0980   -0.9720 n         1 MOL     -0.794870
     20 C7         -5.0960    4.1620   -2.1440 c3        1 MOL      0.626783
     21 C8         -3.7690    3.6550   -2.7130 c         1 MOL      0.311457
     22 O5         -2.7370    4.3830   -2.8840 o         1 MOL     -0.513177
     23 C9         -5.8280    4.9830   -3.2010 c3        1 MOL     -0.423692
     24 H8         -5.5320    5.9030   -1.0510 hn        1 MOL      0.367358
     25 H9         -5.7630    3.3320   -1.9310 h1        1 MOL     -0.024228
     26 H10        -6.8060    5.3080   -2.8370 hc        1 MOL      0.091150
     27 H11        -5.1990    5.8330   -3.4620 hc        1 MOL      0.091150
     28 H12        -6.0060    4.3770   -4.0960 hc        1 MOL      0.091150
     29 N3         -3.6100    2.3000   -2.9340 n         1 MOL     -0.215925
     30 C10        -4.6730    1.3520   -3.2910 c3        1 MOL     -0.091114
     31 C11        -5.0400    0.4240   -2.1000 c         1 MOL      0.470599
     32 O6         -4.5010    0.4900   -1.0090 o         1 MOL     -0.446865
     33 C12        -4.2640    0.3730   -4.4410 c3        1 MOL     -0.268237
     34 C13        -3.0210   -0.5330   -4.1830 c         1 MOL      0.717936
     35 O7         -2.2020   -0.2470   -3.2330 o         1 MOL     -0.677396
     36 O8         -2.8330   -1.4860   -4.9690 o         1 MOL     -0.677396
     37 H13        -2.6780    1.9310   -3.0720 hn        1 MOL      0.207820
     38 H14        -5.6100    1.8320   -3.5800 h1        1 MOL      0.069381
     39 H15        -4.0120    0.9430   -5.3390 hc        1 MOL      0.062502
     40 H16        -5.0980   -0.2940   -4.6290 hc        1 MOL      0.062502
     41 N4         -6.0860   -0.3030   -2.2680 n         1 MOL     -0.493490
     42 C14        -6.5550   -1.3350   -1.2270 c3        1 MOL      0.166982
     43 C15        -7.1370   -0.8330   -0.0200 c         1 MOL      0.443900
     44 O9         -7.5480    0.3300    0.0130 o         1 MOL     -0.468186
     45 H17        -6.5930   -0.1700   -3.1260 hn        1 MOL      0.332217
     46 H18        -5.6720   -1.9330   -0.9860 h1        1 MOL      0.003100
     47 H19        -7.2500   -1.9670   -1.7670 h1        1 MOL      0.003100
     48 N5         -7.2550   -1.7160    0.9950 n         1 MOL     -0.383828
     49 C16        -6.8080   -3.1310    1.0020 c3        1 MOL      0.010208
     50 C17        -5.7150   -3.1200    2.0560 c         1 MOL      0.548274
     51 O10        -5.9380   -2.6070    3.1600 o         1 MOL     -0.482956
     52 C18        -8.0250   -4.0690    1.2820 c3        1 MOL     -0.426603
     53 C19        -8.4140   -3.9470    2.7470 c         1 MOL      0.693190
     54 N6         -8.1630   -4.9820    3.5470 n         1 MOL     -0.801865
     55 O11        -8.9840   -2.9640    3.1480 o         1 MOL     -0.525592
     56 H20        -7.7500   -1.4200    1.8230 hn        1 MOL      0.305578
     57 H21        -6.4050   -3.4880    0.0550 h1        1 MOL      0.102769
     58 H22        -7.6890   -5.0810    1.1030 hc        1 MOL      0.127537
     59 H23        -8.8700   -3.8170    0.6370 hc        1 MOL      0.127537
     60 H24        -7.5970   -5.7300    3.1680 hn        1 MOL      0.371107
     61 H25        -8.3160   -4.7770    4.5230 hn        1 MOL      0.371107
     62 N7         -4.5090   -3.6320    1.7480 n         1 MOL     -0.387999
     63 C20        -3.3600   -3.6800    2.6320 c3        1 MOL     -0.335771
     64 C21        -2.0490   -4.1540    2.0740 c         1 MOL      0.618039
     65 O12        -1.1610   -4.3490    2.8290 o         1 MOL     -0.546090
     66 H26        -4.4840   -4.0230    0.8180 hn        1 MOL      0.217376
     67 H27        -3.6410   -4.3150    3.4690 h1        1 MOL      0.174603
     68 H28        -3.2570   -2.7040    3.1150 h1        1 MOL      0.174603
     69 N8         -2.0590   -4.4690    0.7790 n         1 MOL     -0.360732
     70 C22        -0.9020   -5.0550    0.0540 c3        1 MOL     -0.064592
     71 C23         0.2380   -4.0610    0.1270 c         1 MOL      0.752507
     72 O13         0.2330   -2.9850   -0.4440 o         1 MOL     -0.703735
     73 C24        -1.2710   -5.4050   -1.3600 c3        1 MOL      0.441920
     74 C25        -0.1390   -6.1220   -2.0280 c3        1 MOL     -0.440426
     75 O14        -2.4540   -6.1860   -1.3890 oh        1 MOL     -0.698139
     76 H29        -2.9610   -4.6690    0.3690 hn        1 MOL      0.260496
     77 H30        -0.5700   -5.9670    0.5500 h1        1 MOL      0.051183
     78 H31        -1.3960   -4.4790   -1.9200 h1        1 MOL     -0.033443
     79 H32        -2.4810   -6.6090   -2.2520 ho        1 MOL      0.424674
     80 H33         0.7610   -5.4900   -2.0510 hc        1 MOL      0.119469
     81 H34         0.2220   -6.9530   -1.4320 hc        1 MOL      0.119469
     82 H35        -0.4360   -6.4670   -3.0150 hc        1 MOL      0.119469
     83 N9          1.2360   -4.4450    0.9010 n         1 MOL     -0.534066
     84 C26         2.5010   -3.7100    0.9810 c3        1 MOL     -0.073353
     85 C27         3.3630   -3.8920   -0.2470 c         1 MOL      0.395602
     86 O15         3.7940   -5.0160   -0.5430 o         1 MOL     -0.544194
     87 C28         3.3660   -4.0290    2.2720 c3        1 MOL      0.269474
     88 C29         4.6900   -3.1940    2.2680 c3        1 MOL      0.115414
     89 C30         2.5880   -3.7280    3.5400 c3        1 MOL     -0.255438
     90 C31         5.5410   -3.2840    3.5280 c3        1 MOL     -0.298816
     91 H36         1.1250   -5.3250    1.3930 hn        1 MOL      0.292607
     92 H37         2.2280   -2.6780    1.2150 h1        1 MOL      0.304076
     93 H38         3.6850   -5.0690    2.2420 hc        1 MOL     -0.037808
     94 H39         4.5050   -2.1380    2.0750 hc        1 MOL     -0.002738
     95 H40         5.3310   -3.6690    1.5250 hc        1 MOL     -0.002738
     96 H41         3.1370   -4.1330    4.3870 hc        1 MOL      0.051364
     97 H42         2.2420   -2.7030    3.6800 hc        1 MOL      0.051364
     98 H43         1.7080   -4.3670    3.5260 hc        1 MOL      0.051364
     99 H44         5.6700   -4.3580    3.6880 hc        1 MOL      0.048881
    100 H45         6.4850   -2.7880    3.3350 hc        1 MOL      0.048881
    101 H46         5.0540   -2.7960    4.3760 hc        1 MOL      0.048881
    102 N10         3.6130   -2.7110   -0.8880 n         1 MOL     -0.131134
    103 C32         4.4560   -2.5560   -2.1120 c3        1 MOL     -0.015388
    104 C33         5.3390   -1.2780   -2.2240 c         1 MOL      0.484148
    105 O16         6.0020   -1.1010   -3.2240 o         1 MOL     -0.512579
    106 C34         3.4810   -2.6930   -3.3170 c3        1 MOL      0.020964
    107 C35         2.3310   -1.7230   -3.4480 c         1 MOL      0.724629
    108 O17         1.9740   -0.9310   -2.5130 o         1 MOL     -0.690361
    109 O18         1.6490   -1.7160   -4.4830 o         1 MOL     -0.690361
    110 H47         3.2830   -1.8320   -0.5280 hn        1 MOL     -0.077342
    111 H48         5.0100   -3.4780   -2.2490 h1        1 MOL      0.079105
    112 H49         3.0760   -3.7100   -3.3050 hc        1 MOL      0.001431
    113 H50         3.9290   -2.7050   -4.3170 hc        1 MOL      0.001431
    114 N11         5.4340   -0.5740   -1.0660 n         1 MOL     -0.567984
    115 C36         6.3880    0.5550   -0.9120 c3        1 MOL      0.728220
    116 C37         5.8630    1.6130    0.0010 c         1 MOL      0.122013
    117 O19         6.4030    1.8940    1.0880 o         1 MOL     -0.482702
    118 C38         7.8180    0.0320   -0.6140 c3        1 MOL     -0.357606
    119 C39         8.9080    0.9390   -1.1270 ca        1 MOL      0.197500
    120 C40         9.1950    0.8960   -2.5140 ca        1 MOL     -0.197894
    121 C41         9.6380    1.7270   -0.2950 ca        1 MOL     -0.197894
    122 C42        10.2240    1.5980   -3.0710 ca        1 MOL     -0.064458
    123 C43        10.6220    2.6060   -0.8340 ca        1 MOL     -0.064458
    124 C44        10.9570    2.5310   -2.2390 ca        1 MOL     -0.241933
    125 H51         5.0120   -0.9510   -0.2200 hn        1 MOL      0.214635
    126 H52         6.4550    1.1630   -1.8170 h1        1 MOL     -0.062336
    127 H53         7.9350   -0.9550   -1.0680 hc        1 MOL      0.086725
    128 H54         7.9590   -0.1160    0.4580 hc        1 MOL      0.086725
    129 H55         8.6450    0.1900   -3.1100 ha        1 MOL      0.116228
    130 H56         9.2880    1.8530    0.7200 ha        1 MOL      0.116228
    131 H57        10.5150    1.4810   -4.1100 ha        1 MOL      0.099346
    132 H58        11.1780    3.2890   -0.2140 ha        1 MOL      0.099346
    133 H59        11.6160    3.2340   -2.7090 ha        1 MOL      0.132471
    134 N12         4.6670    2.2430   -0.2320 n         1 MOL     -0.108871
    135 C45         4.1760    3.4020    0.5440 c3        1 MOL      0.042616
    136 C46         4.1040    3.2080    2.0530 c         1 MOL      0.129374
    137 O20         4.2940    4.1060    2.8640 o         1 MOL     -0.482608
    138 C47         2.8100    3.6790   -0.0340 c3        1 MOL      0.086234
    139 C48         2.8340    3.1870   -1.4730 c3        1 MOL     -0.199609
    140 C49         3.7780    1.9780   -1.3290 c3        1 MOL     -0.001098
    141 H60         4.6680    4.3440    0.2910 h1        1 MOL      0.066374
    142 H61         2.0360    3.1660    0.5360 hc        1 MOL      0.030470
    143 H62         2.6140    4.7500    0.0400 hc        1 MOL      0.030470
    144 H63         1.8770    2.8070   -1.8490 hc        1 MOL      0.063186
    145 H64         3.2710    3.9200   -2.1470 hc        1 MOL      0.063186
    146 H65         3.1710    1.1070   -1.0850 h1        1 MOL      0.061282
    147 H66         4.3560    1.7510   -2.2300 h1        1 MOL      0.061282
    148 N13         3.8890    1.9760    2.4540 n         1 MOL      0.203989
    149 C50         3.6250    1.4970    3.8230 c3        1 MOL     -0.430791
    150 C51         5.0240    1.3950    4.4930 c         1 MOL      0.584485
    151 O21         5.1820    1.8770    5.5940 o         1 MOL     -0.565641
    152 C52         2.8820    0.1770    3.7900 c3        1 MOL      0.181621
    153 C53         1.6570    0.1590    2.8690 c3        1 MOL     -0.385553
    154 C54         1.9250   -0.0080    1.3810 c         1 MOL      0.590653
    155 O22         0.9160    0.1400    0.6260 o         1 MOL     -0.670818
    156 O23         3.0620   -0.4270    0.9800 o         1 MOL     -0.670818
    157 H67         3.8840    1.1730    1.8470 hn        1 MOL      0.321527
    158 H68         3.0330    2.2140    4.3810 h1        1 MOL      0.156678
    159 H69         2.6200   -0.0230    4.8360 hc        1 MOL     -0.009215
    160 H70         3.5030   -0.6790    3.5400 hc        1 MOL     -0.009215
    161 H71         1.1690    1.1270    3.0330 hc        1 MOL      0.115354
    162 H72         1.1250   -0.7520    3.1270 hc        1 MOL      0.115354
    163 N14         6.0980    0.8790    3.8570 n         1 MOL     -0.257189
    164 C55         7.4960    0.9000    4.3990 c3        1 MOL     -0.280669
    165 H73         7.9870   -0.0450    4.1710 h1        1 MOL      0.115393
    166 H74         8.0520    1.7180    3.9400 h1        1 MOL      0.115393
    167 H75         7.4640    1.0420    5.4790 h1        1 MOL      0.115393
    168 H76         5.9110    0.6030    2.9070 hn        1 MOL      0.217524
    169 Ca1        -0.2500   -0.5300   -1.4530 Ca        1 MOL      1.813471
    170 O24        -2.5020   -1.6780   -0.6310 oh        1 MOL     -0.901409
    171 H77        -2.7880   -2.5550   -0.8720 ho        1 MOL      0.424528
    172 H78        -3.3090   -1.1650   -0.5490 ho        1 MOL      0.424528
    173 O25        -0.6430   -2.5050   -3.5580 oh        1 MOL     -0.901409
    174 H79        -0.0020   -2.0840   -4.1350 ho        1 MOL      0.424528
    175 H80        -1.4800   -2.0810   -3.7600 ho        1 MOL      0.424528
    176 O26         0.4290    1.0850   -3.7530 oh        1 MOL     -0.901409
    177 H81         0.6930    2.0090   -3.7100 ho        1 MOL      0.424528
    178 H82         0.1260    0.9650   -4.6540 ho        1 MOL      0.424528
    179 O27        -1.7430    1.3750   -0.3910 oh        1 MOL     -0.901409
    180 H83        -2.6870    1.4680   -0.5180 ho        1 MOL      0.424528
    181 H84        -1.5480    1.9190    0.3700 ho        1 MOL      0.424528
@<TRIPOS>BOND
     1    1    2 1   
     2    1    4 1   
     3    1    5 1   
     4    1    6 1   
     5    2    3 2   
     6    2    7 1   
     7    7    8 1   
     8    7   15 1   
     9    8    9 1   
    10    8   11 1   
    11    8   16 1   
    12    9   10 2   
    13    9   19 1   
    14   11   12 1   
    15   11   17 1   
    16   11   18 1   
    17   12   13 1   
    18   12   14 1   
    19   19   20 1   
    20   19   24 1   
    21   20   21 1   
    22   20   23 1   
    23   20   25 1   
    24   21   22 2   
    25   21   29 1   
    26   23   26 1   
    27   23   27 1   
    28   23   28 1   
    29   29   30 1   
    30   29   37 1   
    31   30   31 1   
    32   30   33 1   
    33   30   38 1   
    34   31   32 2   
    35   31   41 1   
    36   33   34 1   
    37   33   39 1   
    38   33   40 1   
    39   34   35 1   
    40   34   36 1   
    41   41   42 1   
    42   41   45 1   
    43   42   43 1   
    44   42   46 1   
    45   42   47 1   
    46   43   44 2   
    47   43   48 1   
    48   48   49 1   
    49   48   56 1   
    50   49   50 1   
    51   49   52 1   
    52   49   57 1   
    53   50   51 2   
    54   50   62 1   
    55   52   53 1   
    56   52   58 1   
    57   52   59 1   
    58   53   54 1   
    59   53   55 2   
    60   54   60 1   
    61   54   61 1   
    62   62   63 1   
    63   62   66 1   
    64   63   64 1   
    65   63   67 1   
    66   63   68 1   
    67   64   65 2   
    68   64   69 1   
    69   69   70 1   
    70   69   76 1   
    71   70   71 1   
    72   70   73 1   
    73   70   77 1   
    74   71   72 2   
    75   71   83 1   
    76   73   74 1   
    77   73   75 1   
    78   73   78 1   
    79   74   80 1   
    80   74   81 1   
    81   74   82 1   
    82   75   79 1   
    83   83   84 1   
    84   83   91 1   
    85   84   85 1   
    86   84   87 1   
    87   84   92 1   
    88   85   86 2   
    89   85  102 1   
    90   87   88 1   
    91   87   89 1   
    92   87   93 1   
    93   88   90 1   
    94   88   94 1   
    95   88   95 1   
    96   89   96 1   
    97   89   97 1   
    98   89   98 1   
    99   90   99 1   
   100   90  100 1   
   101   90  101 1   
   102  102  103 1   
   103  102  110 1   
   104  103  104 1   
   105  103  106 1   
   106  103  111 1   
   107  104  105 2   
   108  104  114 1   
   109  106  107 1   
   110  106  112 1   
   111  106  113 1   
   112  107  108 1   
   113  107  109 1   
   114  114  115 1   
   115  114  125 1   
   116  115  116 1   
   117  115  118 1   
   118  115  126 1   
   119  116  117 2   
   120  116  134 1   
   121  118  119 1   
   122  118  127 1   
   123  118  128 1   
   124  119  120 ar  
   125  119  121 ar  
   126  120  122 ar  
   127  120  129 1   
   128  121  123 ar  
   129  121  130 1   
   130  122  124 ar  
   131  122  131 1   
   132  123  124 ar  
   133  123  132 1   
   134  124  133 1   
   135  134  135 1   
   136  134  140 1   
   137  135  136 1   
   138  135  138 1   
   139  135  141 1   
   140  136  137 2   
   141  136  148 1   
   142  138  139 1   
   143  138  142 1   
   144  138  143 1   
   145  139  140 1   
   146  139  144 1   
   147  139  145 1   
   148  140  146 1   
   149  140  147 1   
   150  148  149 1   
   151  148  157 1   
   152  149  150 1   
   153  149  152 1   
   154  149  158 1   
   155  150  151 2   
   156  150  163 1   
   157  152  153 1   
   158  152  159 1   
   159  152  160 1   
   160  153  154 1   
   161  153  161 1   
   162  153  162 1   
   163  154  155 1   
   164  154  156 1   
   165  163  164 1   
   166  163  168 1   
   167  164  165 1   
   168  164  166 1   
   169  164  167 1   
   170  170  171 1   
   171  170  172 1   
   172  173  174 1   
   173  173  175 1   
   174  176  177 1   
   175  176  178 1   
   176  179  180 1   
   177  179  181 1   
@<TRIPOS>SUBSTRUCTURE
     1 MOL         1 TEMP              0 ****  ****    0 ROOT
