@<TRIPOS>MOLECULE
MOL
  188   182     1     0     0
SMALL
resp


@<TRIPOS>ATOM
      1 C1          5.0900   -1.4420    5.7050 c3        1 MOL     -0.462717
      2 C2          4.1040   -1.0450    4.5890 c         1 MOL      0.726945
      3 O1          2.9340   -0.8990    4.8940 o         1 MOL     -0.571077
      4 H1          5.2630   -2.5180    5.6700 hc        1 MOL      0.116068
      5 H2          6.0350   -0.9170    5.5590 hc        1 MOL      0.116068
      6 H3          4.6700   -1.1740    6.6740 hc        1 MOL      0.116068
      7 N1          4.5620   -0.9840    3.2830 n         1 MOL     -0.554910
      8 C3          3.7230   -0.8910    2.0670 c3        1 MOL     -0.055653
      9 C4          3.5500   -2.1570    1.2450 c         1 MOL      0.289996
     10 O2          2.5420   -2.3450    0.6190 o         1 MOL     -0.448157
     11 C5          4.2950    0.1640    1.1470 c3        1 MOL      0.012658
     12 C6          5.7650    0.1560    0.9030 c         1 MOL      0.791418
     13 O3          6.3580    1.1790    1.0180 o         1 MOL     -0.706948
     14 O4          6.3730   -0.9260    0.6910 o         1 MOL     -0.706948
     15 H4          5.5650   -1.0660    3.1500 hn        1 MOL      0.281454
     16 H5          2.7570   -0.5620    2.4410 h1        1 MOL      0.136907
     17 H6          4.2430    1.1260    1.6560 hc        1 MOL     -0.000880
     18 H7          3.7250    0.1950    0.2170 hc        1 MOL     -0.000880
     19 N2          4.4950   -3.0610    1.1750 n         1 MOL     -0.088923
     20 C7          4.3730   -4.3150    0.3340 c3        1 MOL     -0.062057
     21 C8          4.6200   -4.1210   -1.1910 c         1 MOL      0.640727
     22 O5          5.3390   -4.8730   -1.8100 o         1 MOL     -0.553491
     23 C9          5.1610   -5.4890    0.9210 c3        1 MOL     -0.171927
     24 C10         4.8350   -5.8740    2.4120 c3        1 MOL      0.273027
     25 C11         5.9260   -6.6030    3.1110 c3        1 MOL     -0.078249
     26 C12         5.2560   -7.0830    4.3840 c3        1 MOL      0.016302
     27 N3          6.2420   -7.5000    5.4520 n4        1 MOL     -0.297372
     28 H8          5.3440   -2.8750    1.6910 hn        1 MOL      0.176392
     29 H9          3.3040   -4.5380    0.4230 h1        1 MOL      0.102221
     30 H10         6.2280   -5.2680    0.8680 hc        1 MOL      0.059470
     31 H11         5.1310   -6.4000    0.3350 hc        1 MOL      0.059470
     32 H12         3.8900   -6.4040    2.4580 hc        1 MOL     -0.074741
     33 H13         4.5950   -4.9430    2.9060 hc        1 MOL     -0.074741
     34 H14         6.7220   -5.9210    3.3780 hc        1 MOL      0.039809
     35 H15         6.3220   -7.3900    2.4820 hc        1 MOL      0.039809
     36 H16         4.7130   -7.9780    4.0580 hx        1 MOL      0.087832
     37 H17         4.6120   -6.3350    4.8430 hx        1 MOL      0.087832
     38 H18         6.9150   -6.7690    5.6350 hn        1 MOL      0.288789
     39 H19         5.7650   -7.7850    6.2910 hn        1 MOL      0.288789
     40 H20         6.7370   -8.2970    5.0830 hn        1 MOL      0.288789
     41 N4          3.9330   -3.2090   -1.8550 n         1 MOL     -0.592337
     42 C13         4.1430   -2.8120   -3.2150 c3        1 MOL      0.181749
     43 C14         4.2660   -1.2930   -3.3440 c         1 MOL      0.612781
     44 O6          3.7410   -0.5030   -2.5210 o         1 MOL     -0.481035
     45 C15         2.9290   -3.2330   -3.9650 c3        1 MOL     -0.241441
     46 C16         1.6520   -2.5850   -3.4450 c         1 MOL      0.698931
     47 O7          1.0280   -2.9780   -2.4420 o         1 MOL     -0.688317
     48 O8          1.0680   -1.7690   -4.1430 o         1 MOL     -0.688317
     49 H21         3.3860   -2.6130   -1.2540 hn        1 MOL      0.230406
     50 H22         5.0220   -3.2990   -3.6450 h1        1 MOL      0.064171
     51 H23         2.9310   -4.3240   -3.9740 hc        1 MOL      0.061731
     52 H24         3.1350   -3.0090   -5.0140 hc        1 MOL      0.061731
     53 N5          4.9640   -0.8220   -4.3880 n         1 MOL     -0.586642
     54 C17         5.4090    0.5980   -4.5440 c3        1 MOL      0.050937
     55 C18         6.6180    0.7650   -3.5660 c         1 MOL      0.586649
     56 O9          7.3840   -0.1810   -3.3070 o         1 MOL     -0.549307
     57 H25         5.4620   -1.4620   -4.9980 hn        1 MOL      0.318504
     58 H26         4.5320    1.1950   -4.3140 h1        1 MOL      0.077495
     59 H27         5.7830    0.8100   -5.5440 h1        1 MOL      0.077495
     60 N6          6.9460    1.9520   -3.0060 n         1 MOL     -0.532431
     61 C19         6.0710    3.0620   -2.9850 c3        1 MOL      0.000379
     62 C20         6.2500    3.9820   -1.7310 c         1 MOL      0.680801
     63 O10         7.2420    4.6580   -1.5430 o         1 MOL     -0.588375
     64 C21         6.2760    3.8210   -4.2820 c3        1 MOL     -0.361294
     65 C22         5.3490    4.9940   -4.3850 c         1 MOL      0.647212
     66 N7          6.0430    6.0520   -4.5080 n         1 MOL     -0.697072
     67 O11         4.1280    5.0070   -4.2760 o         1 MOL     -0.558716
     68 H28         7.6810    1.8770   -2.3080 hn        1 MOL      0.366132
     69 H29         5.0470    2.7060   -2.9820 h1        1 MOL      0.057289
     70 H30         6.2050    3.1500   -5.1340 hc        1 MOL      0.119918
     71 H31         7.3070    4.1510   -4.4350 hc        1 MOL      0.119918
     72 H32         7.0500    6.0810   -4.5520 hn        1 MOL      0.335884
     73 H33         5.6420    6.9610   -4.3160 hn        1 MOL      0.335884
     74 N8          5.3010    4.0860   -0.8050 n         1 MOL     -0.380150
     75 C23         4.0300    3.3350   -0.8590 c3        1 MOL     -0.137677
     76 C24         2.9960    3.6220    0.2210 c         1 MOL      0.785407
     77 O12         3.4440    4.1350    1.2530 o         1 MOL     -0.558683
     78 H34         5.3900    4.7530   -0.0540 hn        1 MOL      0.283392
     79 H35         4.3100    2.2750   -0.7950 h1        1 MOL      0.058026
     80 H36         3.5690    3.5710   -1.8170 h1        1 MOL      0.058026
     81 N9          1.6880    3.3920    0.0390 n         1 MOL     -0.780892
     82 C25         0.6410    3.8110    1.0470 c3        1 MOL      0.371125
     83 C26        -0.6260    2.9020    0.9940 c         1 MOL      0.534637
     84 O13        -0.8410    2.0920    0.0960 o         1 MOL     -0.555811
     85 C27         0.2640    5.2560    0.7670 c3        1 MOL     -0.126007
     86 C28        -0.2200    5.9900    1.9840 ca        1 MOL     -0.048613
     87 C29        -1.3970    6.7820    1.9700 ca        1 MOL     -0.026601
     88 C30         0.6380    6.0730    3.1070 ca        1 MOL     -0.026601
     89 C31        -1.8330    7.4060    3.0990 ca        1 MOL     -0.381611
     90 C32         0.2690    6.7910    4.2410 ca        1 MOL     -0.381611
     91 C33        -1.0320    7.4630    4.2590 ca        1 MOL      0.411153
     92 O14        -1.5270    7.9950    5.4180 oh        1 MOL     -0.494252
     93 H37         1.4050    3.1880   -0.9030 hn        1 MOL      0.360585
     94 H38         1.0140    3.7890    2.0790 h1        1 MOL     -0.037198
     95 H39        -0.4980    5.2630   -0.0040 hc        1 MOL      0.062888
     96 H40         1.1220    5.8080    0.3850 hc        1 MOL      0.062888
     97 H41        -1.9640    6.8720    1.0530 ha        1 MOL      0.127482
     98 H42         1.6660    5.7440    3.0370 ha        1 MOL      0.127482
     99 H43        -2.7970    7.8750    3.1700 ha        1 MOL      0.169851
    100 H44         0.9730    6.9810    5.0320 ha        1 MOL      0.169851
    101 H45        -0.9950    7.6420    6.1420 ho        1 MOL      0.361985
    102 N10        -1.5350    3.1440    1.9650 n         1 MOL     -0.411083
    103 C34        -2.8320    2.5360    1.9840 c3        1 MOL     -0.371861
    104 C35        -3.6440    3.2020    0.8410 c         1 MOL      0.845549
    105 O15        -3.6270    4.4490    0.6740 o         1 MOL     -0.588637
    106 C36        -3.6470    2.7470    3.2380 c3        1 MOL      0.022483
    107 C37        -3.1270    1.6470    4.2290 c3        1 MOL     -0.017398
    108 C38        -3.4620    4.1380    3.9490 c3        1 MOL      0.035904
    109 C39        -3.7560    1.5830    5.5920 c3        1 MOL     -0.190393
    110 H46        -1.2880    3.7710    2.7080 hn        1 MOL      0.246310
    111 H47        -2.6480    1.4870    1.7540 h1        1 MOL      0.165206
    112 H48        -4.6850    2.5400    2.9760 hc        1 MOL      0.045234
    113 H49        -2.0600    1.7700    4.4300 hc        1 MOL      0.041072
    114 H50        -3.0920    0.6650    3.7520 hc        1 MOL      0.041072
    115 H51        -3.7600    4.9920    3.3340 hc        1 MOL      0.020090
    116 H52        -4.1180    4.2140    4.8210 hc        1 MOL      0.020090
    117 H53        -2.4640    4.1940    4.3670 hc        1 MOL      0.020090
    118 H54        -4.7630    1.1910    5.5000 hc        1 MOL      0.048990
    119 H55        -3.1620    0.8430    6.1250 hc        1 MOL      0.048990
    120 H56        -3.7720    2.5090    6.1800 hc        1 MOL      0.048990
    121 N11        -4.3960    2.4040    0.1150 n         1 MOL     -0.526256
    122 C40        -5.4500    2.8960   -0.8720 c3        1 MOL     -0.059126
    123 C41        -5.8830    1.8130   -1.8590 c         1 MOL      0.732037
    124 O16        -5.6090    0.6560   -1.5920 o         1 MOL     -0.524428
    125 C42        -6.6600    3.3560   -0.0750 c3        1 MOL      0.065198
    126 O17        -7.2650    2.2890    0.6040 oh        1 MOL     -0.570030
    127 H57        -4.2850    1.3970    0.1530 hn        1 MOL      0.309145
    128 H58        -5.0660    3.7020   -1.4930 h1        1 MOL      0.081394
    129 H59        -7.3440    3.8640   -0.7520 h1        1 MOL      0.043159
    130 H60        -6.3180    4.0900    0.6490 h1        1 MOL      0.043159
    131 H61        -7.8840    2.7380    1.1940 ho        1 MOL      0.402952
    132 N12        -6.5490    2.1030   -2.9380 n         1 MOL     -0.668702
    133 C43        -7.2060    1.1390   -3.8860 c3        1 MOL      0.407747
    134 C44        -7.7950   -0.1650   -3.2010 c         1 MOL      0.334071
    135 O18        -7.5660   -1.2720   -3.6960 o         1 MOL     -0.456708
    136 C45        -6.4510    0.8990   -5.1980 c3        1 MOL     -0.446571
    137 H62        -6.6750    3.0890   -3.1110 hn        1 MOL      0.313085
    138 H63        -8.1310    1.6320   -4.1930 h1        1 MOL      0.001964
    139 H64        -6.6020    1.7300   -5.8820 hc        1 MOL      0.131324
    140 H65        -5.4260    0.6380   -4.9130 hc        1 MOL      0.131324
    141 H66        -6.9410    0.0870   -5.7290 hc        1 MOL      0.131324
    142 N13        -8.4600   -0.0400   -2.1090 n         1 MOL     -0.414513
    143 C46        -9.2560   -1.0200   -1.4350 c3        1 MOL      0.374301
    144 C47        -8.4950   -2.3740   -1.2130 c         1 MOL      0.212159
    145 O19        -9.1490   -3.4110   -1.4540 o         1 MOL     -0.447056
    146 C48       -10.5270   -1.1220   -2.2400 c3        1 MOL     -0.321414
    147 H67        -8.7280    0.9250   -1.9550 hn        1 MOL      0.229844
    148 H68        -9.4820   -0.6610   -0.4270 h1        1 MOL     -0.017286
    149 H69       -10.9990   -0.1830   -2.5060 hc        1 MOL      0.087366
    150 H70       -10.3490   -1.6190   -3.1980 hc        1 MOL      0.087366
    151 H71       -11.1970   -1.7560   -1.6650 hc        1 MOL      0.087366
    152 N14        -7.2150   -2.4350   -0.9050 n         1 MOL     -0.147182
    153 C49        -6.5600   -3.7070   -0.6880 c3        1 MOL     -0.189519
    154 C50        -7.0470   -4.4900    0.5660 c         1 MOL      0.461057
    155 O20        -7.2880   -5.7220    0.4520 o         1 MOL     -0.515598
    156 C51        -5.0580   -3.4240   -0.5150 c3        1 MOL      0.299205
    157 C52        -4.1500   -4.5200   -0.0190 c3        1 MOL     -0.090950
    158 C53        -2.7730   -3.8930   -0.0770 c         1 MOL      0.560451
    159 O21        -1.9370   -4.3920   -0.8720 o         1 MOL     -0.718426
    160 O22        -2.3980   -2.9440    0.6420 o         1 MOL     -0.718426
    161 H72        -6.7730   -1.5780   -0.6170 hn        1 MOL      0.185117
    162 H73        -6.7350   -4.3350   -1.5680 h1        1 MOL      0.163012
    163 H74        -5.0050   -2.6800    0.2880 hc        1 MOL     -0.046591
    164 H75        -4.6980   -3.0660   -1.4770 hc        1 MOL     -0.046591
    165 H76        -4.3050   -5.3800   -0.6670 hc        1 MOL      0.018670
    166 H77        -4.3580   -4.9060    0.9740 hc        1 MOL      0.018670
    167 N15        -7.3030   -3.7550    1.6460 n         1 MOL     -0.206908
    168 C54        -7.6970   -4.3900    2.9030 c3        1 MOL     -0.503837
    169 H78        -6.8890   -5.0320    3.2540 h1        1 MOL      0.177205
    170 H79        -7.9000   -3.6220    3.6500 h1        1 MOL      0.177205
    171 H80        -8.5930   -4.9890    2.7430 h1        1 MOL      0.177205
    172 H81        -7.0540   -2.7740    1.6410 hn        1 MOL      0.241089
    173 Ca1         0.0840   -2.5940   -0.0530 Ca        1 MOL      1.775375
    174 O23         0.9010   -5.0730   -0.5990 oh        1 MOL     -0.830379
    175 H82         0.4760   -5.0580   -1.4590 ho        1 MOL      0.399982
    176 H83         1.4260   -5.8770   -0.6080 ho        1 MOL      0.399982
    177 O24        -0.5760   -0.7550    1.8180 oh        1 MOL     -0.830379
    178 H84        -1.4410   -0.3590    1.8020 ho        1 MOL      0.399982
    179 H85        -0.0760   -0.2110    2.4220 ho        1 MOL      0.399982
    180 O25         0.5360   -3.4790    2.5310 oh        1 MOL     -0.830379
    181 H86         1.1300   -4.0330    3.0460 ho        1 MOL      0.399982
    182 H87        -0.0270   -3.0580    3.1880 ho        1 MOL      0.399982
    183 O26         0.9810   -0.1280   -0.6970 oh        1 MOL     -0.830379
    184 H88         1.4450    0.0840   -1.4950 ho        1 MOL      0.399982
    185 H89         0.4680    0.6620   -0.4960 ho        1 MOL      0.399982
    186 O27        -1.4600   -1.5220   -1.9540 oh        1 MOL     -0.830379
    187 H90        -2.1200   -0.9750   -2.3840 ho        1 MOL      0.399982
    188 H91        -0.8880   -1.8170   -2.6630 ho        1 MOL      0.399982
@<TRIPOS>BOND
     1    1    2 1   
     2    1    4 1   
     3    1    5 1   
     4    1    6 1   
     5    2    3 2   
     6    2    7 1   
     7    7    8 1   
     8    7   15 1   
     9    8    9 1   
    10    8   11 1   
    11    8   16 1   
    12    9   10 2   
    13    9   19 1   
    14   11   12 1   
    15   11   17 1   
    16   11   18 1   
    17   12   13 1   
    18   12   14 1   
    19   19   20 1   
    20   19   28 1   
    21   20   21 1   
    22   20   23 1   
    23   20   29 1   
    24   21   22 2   
    25   21   41 1   
    26   23   24 1   
    27   23   30 1   
    28   23   31 1   
    29   24   25 1   
    30   24   32 1   
    31   24   33 1   
    32   25   26 1   
    33   25   34 1   
    34   25   35 1   
    35   26   27 1   
    36   26   36 1   
    37   26   37 1   
    38   27   38 1   
    39   27   39 1   
    40   27   40 1   
    41   41   42 1   
    42   41   49 1   
    43   42   43 1   
    44   42   45 1   
    45   42   50 1   
    46   43   44 2   
    47   43   53 1   
    48   45   46 1   
    49   45   51 1   
    50   45   52 1   
    51   46   47 1   
    52   46   48 1   
    53   53   54 1   
    54   53   57 1   
    55   54   55 1   
    56   54   58 1   
    57   54   59 1   
    58   55   56 2   
    59   55   60 1   
    60   60   61 1   
    61   60   68 1   
    62   61   62 1   
    63   61   64 1   
    64   61   69 1   
    65   62   63 2   
    66   62   74 1   
    67   64   65 1   
    68   64   70 1   
    69   64   71 1   
    70   65   66 1   
    71   65   67 2   
    72   66   72 1   
    73   66   73 1   
    74   74   75 1   
    75   74   78 1   
    76   75   76 1   
    77   75   79 1   
    78   75   80 1   
    79   76   77 2   
    80   76   81 1   
    81   81   82 1   
    82   81   93 1   
    83   82   83 1   
    84   82   85 1   
    85   82   94 1   
    86   83   84 2   
    87   83  102 1   
    88   85   86 1   
    89   85   95 1   
    90   85   96 1   
    91   86   87 ar  
    92   86   88 ar  
    93   87   89 ar  
    94   87   97 1   
    95   88   90 ar  
    96   88   98 1   
    97   89   91 ar  
    98   89   99 1   
    99   90   91 ar  
   100   90  100 1   
   101   91   92 1   
   102   92  101 1   
   103  102  103 1   
   104  102  110 1   
   105  103  104 1   
   106  103  106 1   
   107  103  111 1   
   108  104  105 2   
   109  104  121 1   
   110  106  107 1   
   111  106  108 1   
   112  106  112 1   
   113  107  109 1   
   114  107  113 1   
   115  107  114 1   
   116  108  115 1   
   117  108  116 1   
   118  108  117 1   
   119  109  118 1   
   120  109  119 1   
   121  109  120 1   
   122  121  122 1   
   123  121  127 1   
   124  122  123 1   
   125  122  125 1   
   126  122  128 1   
   127  123  124 2   
   128  123  132 1   
   129  125  126 1   
   130  125  129 1   
   131  125  130 1   
   132  126  131 1   
   133  132  133 1   
   134  132  137 1   
   135  133  134 1   
   136  133  136 1   
   137  133  138 1   
   138  134  135 2   
   139  134  142 1   
   140  136  139 1   
   141  136  140 1   
   142  136  141 1   
   143  142  143 1   
   144  142  147 1   
   145  143  144 1   
   146  143  146 1   
   147  143  148 1   
   148  144  145 2   
   149  144  152 1   
   150  146  149 1   
   151  146  150 1   
   152  146  151 1   
   153  152  153 1   
   154  152  161 1   
   155  153  154 1   
   156  153  156 1   
   157  153  162 1   
   158  154  155 2   
   159  154  167 1   
   160  156  157 1   
   161  156  163 1   
   162  156  164 1   
   163  157  158 1   
   164  157  165 1   
   165  157  166 1   
   166  158  159 1   
   167  158  160 1   
   168  167  168 1   
   169  167  172 1   
   170  168  169 1   
   171  168  170 1   
   172  168  171 1   
   173  174  175 1   
   174  174  176 1   
   175  177  178 1   
   176  177  179 1   
   177  180  181 1   
   178  180  182 1   
   179  183  184 1   
   180  183  185 1   
   181  186  187 1   
   182  186  188 1   
@<TRIPOS>SUBSTRUCTURE
     1 MOL         1 TEMP              0 ****  ****    0 ROOT
