@<TRIPOS>MOLECULE
MOL
  192   187     1     0     0
SMALL
resp


@<TRIPOS>ATOM
      1 C1         11.7550   -5.9640    1.9070 c3        1 MOL     -0.454093
      2 C2         11.5920   -4.5780    1.2870 c         1 MOL      0.683028
      3 O1         12.3910   -3.6640    1.5140 o         1 MOL     -0.598483
      4 H1         12.1310   -6.6570    1.1540 hc        1 MOL      0.124883
      5 H2         12.4610   -5.9120    2.7360 hc        1 MOL      0.124883
      6 H3         10.7900   -6.3150    2.2720 hc        1 MOL      0.124883
      7 N1         10.5220   -4.3790    0.5570 n         1 MOL     -0.246029
      8 C3         10.3830   -3.2690   -0.3970 c3        1 MOL     -0.351299
      9 C4          9.1920   -2.3900   -0.2850 c         1 MOL      0.609528
     10 O2          8.1010   -2.8410    0.2040 o         1 MOL     -0.680933
     11 C5         10.4150   -3.7360   -1.8300 c3        1 MOL      0.169443
     12 C6          9.2640   -4.7310   -2.2000 c         1 MOL      0.602519
     13 O3          9.2520   -5.1680   -3.3600 o         1 MOL     -0.667738
     14 O4          8.3110   -4.9460   -1.4150 o         1 MOL     -0.667738
     15 H4          9.8510   -5.1240    0.5530 hn        1 MOL      0.112032
     16 H5         11.2530   -2.6180   -0.2480 h1        1 MOL      0.128403
     17 H6         11.3840   -4.1830   -2.0610 hc        1 MOL      0.000856
     18 H7         10.4030   -2.9010   -2.5350 hc        1 MOL      0.000856
     19 N2          9.2900   -1.1010   -0.6440 n         1 MOL     -0.315357
     20 C7          8.2420   -0.0970   -0.2650 c3        1 MOL      0.000976
     21 C8          7.1560    0.0670   -1.3040 c         1 MOL      0.477655
     22 O5          7.4130    0.3680   -2.4330 o         1 MOL     -0.495403
     23 C9          8.9900    1.2880   -0.0770 c3        1 MOL     -0.140468
     24 C10         9.6380    1.4090    1.2200 c3        1 MOL     -0.001770
     25 C11        10.2990    2.7380    1.2980 c3        1 MOL      0.076433
     26 C12        10.8160    3.0750    2.7370 c3        1 MOL      0.058198
     27 N3         10.9380    4.4810    2.8760 n4        1 MOL     -0.195863
     28 H8         10.1560   -0.7950   -1.0590 hn        1 MOL      0.282167
     29 H9          7.8160   -0.3260    0.7120 h1        1 MOL      0.086101
     30 H10         8.3140    2.1320   -0.2410 hc        1 MOL      0.068877
     31 H11         9.7050    1.3500   -0.8950 hc        1 MOL      0.068877
     32 H12        10.3910    0.6260    1.3320 hc        1 MOL      0.012725
     33 H13         8.8610    1.3200    1.9820 hc        1 MOL      0.012725
     34 H14         9.6480    3.5560    1.0160 hc        1 MOL      0.006758
     35 H15        11.1950    2.8790    0.6780 hc        1 MOL      0.006758
     36 H16        11.7640    2.5480    2.8780 hx        1 MOL      0.053194
     37 H17        10.1800    2.6540    3.5200 hx        1 MOL      0.053194
     38 H18        11.4640    4.7520    3.6930 hn        1 MOL      0.230747
     39 H19        11.5230    4.9060    2.1640 hn        1 MOL      0.230747
     40 H20        10.0280    4.9220    2.9230 hn        1 MOL      0.230747
     41 N4          5.9170   -0.1860   -0.8980 n         1 MOL     -0.350983
     42 C13         4.7490    0.0130   -1.6810 c3        1 MOL      0.058430
     43 C14         3.4510    0.1400   -0.8150 c         1 MOL      0.263778
     44 O6          3.3680   -0.4630    0.2590 o         1 MOL     -0.443310
     45 C15         4.5070   -1.0600   -2.7190 c3        1 MOL      0.024388
     46 C16         4.9540   -2.4060   -2.1540 c         1 MOL      0.536340
     47 O7          4.1400   -3.0130   -1.4740 o         1 MOL     -0.656256
     48 O8          6.0960   -2.8660   -2.3660 o         1 MOL     -0.656256
     49 H21         5.9010   -0.6320    0.0110 hn        1 MOL      0.151324
     50 H22         4.9240    0.9360   -2.2400 h1        1 MOL      0.100762
     51 H23         5.0450   -0.7990   -3.6330 hc        1 MOL      0.022667
     52 H24         3.4630   -1.1250   -3.0050 hc        1 MOL      0.022667
     53 N5          2.5130    1.0010   -1.2290 n         1 MOL     -0.204319
     54 C17         2.4850    1.7640   -2.4490 c3        1 MOL     -0.116088
     55 C18         2.6070    3.2930   -2.2500 c         1 MOL      0.549140
     56 O9          3.1810    3.7430   -1.2170 o         1 MOL     -0.529830
     57 H25         1.6630    1.2240   -0.7280 hn        1 MOL      0.259000
     58 H26         1.5680    1.5110   -2.9780 h1        1 MOL      0.073001
     59 H27         3.2840    1.4740   -3.1360 h1        1 MOL      0.073001
     60 N6          2.0870    4.1270   -3.1740 n         1 MOL     -0.466734
     61 C19         1.9970    5.5880   -3.1260 c3        1 MOL      0.165533
     62 C20         1.3980    6.1040   -1.7740 c         1 MOL      0.419768
     63 O10         2.0930    6.7610   -0.9750 o         1 MOL     -0.499570
     64 C21         1.3090    6.0280   -4.3680 c3        1 MOL     -0.279030
     65 C22         1.2140    7.5160   -4.4920 c         1 MOL      0.688811
     66 O11         2.1620    8.2170   -4.0380 o         1 MOL     -0.643594
     67 O12         0.2310    8.0500   -5.0980 o         1 MOL     -0.643594
     68 H28         1.5480    3.7030   -3.9190 hn        1 MOL      0.246543
     69 H29         3.0400    5.9140   -3.1230 h1        1 MOL      0.083914
     70 H30         0.2750    5.7000   -4.4840 hc        1 MOL      0.059339
     71 H31         1.9110    5.6540   -5.2050 hc        1 MOL      0.059339
     72 N7          0.1450    5.7850   -1.5290 n         1 MOL     -0.230471
     73 C23        -0.6560    6.0300   -0.3480 c3        1 MOL     -0.100386
     74 C24        -0.3210    5.1200    0.8790 c         1 MOL      0.475602
     75 O13        -1.0050    5.3280    1.8760 o         1 MOL     -0.558073
     76 H32        -0.3560    5.3930   -2.3080 hn        1 MOL      0.233921
     77 H33        -1.7160    5.9360   -0.5900 h1        1 MOL      0.103020
     78 H34        -0.5420    7.0670   -0.0010 h1        1 MOL      0.103020
     79 N8          0.6360    4.2190    0.8430 n         1 MOL     -0.299843
     80 C25         0.9230    3.3140    1.9520 c3        1 MOL      0.347762
     81 C26         0.4560    1.9420    1.5940 c         1 MOL      0.234548
     82 O14         0.3680    1.5110    0.4610 o         1 MOL     -0.463522
     83 C27         2.4070    3.2960    2.3760 c3        1 MOL      0.452002
     84 C28         2.8430    4.6970    2.9360 c3        1 MOL     -0.507545
     85 O15         2.6230    2.3860    3.4220 oh        1 MOL     -0.604017
     86 H35         0.9260    4.0210   -0.1020 hn        1 MOL      0.095580
     87 H36         0.3160    3.7170    2.7590 h1        1 MOL     -0.012217
     88 H37         2.9640    3.0890    1.4700 h1        1 MOL     -0.047358
     89 H38         3.0110    1.6220    2.9840 ho        1 MOL      0.344566
     90 H39         3.6520    4.5640    3.6530 hc        1 MOL      0.133984
     91 H40         3.2290    5.2260    2.0690 hc        1 MOL      0.133984
     92 H41         2.0090    5.2340    3.4130 hc        1 MOL      0.133984
     93 N9         -0.0120    1.2650    2.6180 n         1 MOL     -0.239376
     94 C29        -0.5830   -0.1570    2.6040 c3        1 MOL     -0.041517
     95 C30        -2.0140   -0.2470    2.0170 c         1 MOL      0.452149
     96 O16        -2.4180   -1.3570    1.5860 o         1 MOL     -0.517354
     97 C31        -0.4670   -0.7740    4.0710 c3        1 MOL      0.172201
     98 C32         0.7960   -0.5130    4.9800 c3        1 MOL      0.064013
     99 C33        -0.7040   -2.3380    4.0450 c3        1 MOL     -0.465525
    100 C34         2.0870   -0.9370    4.2340 c3        1 MOL     -0.280900
    101 H42         0.2350    1.6170    3.5380 hn        1 MOL      0.204628
    102 H43         0.0740   -0.7020    1.9280 h1        1 MOL      0.095004
    103 H44        -1.2900   -0.2600    4.5730 hc        1 MOL     -0.012948
    104 H45         0.7310   -0.9040    5.9910 hc        1 MOL      0.006140
    105 H46         0.8650    0.5530    5.1830 hc        1 MOL      0.006140
    106 H47        -0.4570   -2.8830    4.9560 hc        1 MOL      0.133131
    107 H48        -1.7790   -2.4720    3.9750 hc        1 MOL      0.133131
    108 H49        -0.1650   -2.7560    3.1850 hc        1 MOL      0.133131
    109 H50         2.0120   -1.9950    3.9790 hc        1 MOL      0.066577
    110 H51         2.1870   -0.2890    3.3580 hc        1 MOL      0.066577
    111 H52         2.9750   -0.8540    4.8690 hc        1 MOL      0.066577
    112 N10        -2.7090    0.8780    1.9520 n         1 MOL     -0.208041
    113 C35        -3.9200    1.0740    1.1020 c3        1 MOL     -0.261854
    114 C36        -4.9560    1.7740    1.9090 c         1 MOL      0.643459
    115 O17        -4.7220    2.5990    2.8150 o         1 MOL     -0.522010
    116 C37        -3.6210    1.7880   -0.2260 c3        1 MOL      0.410702
    117 C38        -3.4410    3.3170   -0.0170 c3        1 MOL     -0.348862
    118 O18        -2.3910    1.2760   -0.7910 oh        1 MOL     -0.612022
    119 H53        -2.3340    1.6490    2.4750 hn        1 MOL      0.175330
    120 H54        -4.3950    0.1040    0.9470 h1        1 MOL      0.130428
    121 H55        -4.4220    1.6370   -0.9530 h1        1 MOL      0.043483
    122 H56        -1.8390    1.1290   -0.0180 ho        1 MOL      0.385557
    123 H57        -3.0260    3.7390   -0.9330 hc        1 MOL      0.085835
    124 H58        -4.4290    3.7530    0.0970 hc        1 MOL      0.085835
    125 H59        -2.8780    3.6530    0.8470 hc        1 MOL      0.085835
    126 N11        -6.2360    1.4550    1.5520 n         1 MOL     -0.523336
    127 C39        -7.4420    2.0140    2.1680 c3        1 MOL     -0.007429
    128 C40        -8.5230    0.9620    2.1690 c         1 MOL      0.642216
    129 O19        -9.1530    0.8180    3.2120 o         1 MOL     -0.570960
    130 C41        -8.0230    3.2310    1.3400 c3        1 MOL      0.244693
    131 C42        -9.3730    3.8150    1.7360 c3        1 MOL     -0.508861
    132 O20        -8.0750    2.9220   -0.0070 oh        1 MOL     -0.614335
    133 H60        -6.3240    0.8570    0.7350 hn        1 MOL      0.257566
    134 H61        -7.2200    2.3620    3.1790 h1        1 MOL      0.125210
    135 H62        -7.2580    4.0050    1.3670 h1        1 MOL      0.055304
    136 H63        -8.1020    3.7920   -0.4160 ho        1 MOL      0.413080
    137 H64        -9.6030    4.6330    1.0590 hc        1 MOL      0.144415
    138 H65       -10.1600    3.0940    1.5250 hc        1 MOL      0.144415
    139 H66        -9.2970    4.1410    2.7770 hc        1 MOL      0.144415
    140 N12        -8.6050    0.1850    1.1060 n         1 MOL     -0.458454
    141 C43        -9.7350   -0.7440    0.7670 c3        1 MOL     -0.060839
    142 C44        -9.3020   -1.7710   -0.1920 c         1 MOL      0.581087
    143 O21        -8.5450   -1.4810   -1.1030 o         1 MOL     -0.517547
    144 C45       -11.0080   -0.0220    0.2820 c3        1 MOL     -0.212051
    145 C46       -10.9970    0.6250   -1.1070 c3        1 MOL     -0.006962
    146 C47       -12.1640    1.5380   -1.3040 c3        1 MOL     -0.001432
    147 C48       -13.4410    0.7120   -1.1520 c3        1 MOL      0.133724
    148 N13       -14.6610    1.4920   -1.4400 n4        1 MOL     -0.344582
    149 H67        -8.0250    0.4740    0.3330 hn        1 MOL      0.299139
    150 H68       -10.0750   -1.2380    1.6820 h1        1 MOL      0.116004
    151 H69       -11.3970    0.7180    0.9750 hc        1 MOL      0.080093
    152 H70       -11.7780   -0.7800    0.2110 hc        1 MOL      0.080093
    153 H71       -10.9370   -0.0810   -1.9330 hc        1 MOL      0.051878
    154 H72       -10.0650    1.1980   -1.1530 hc        1 MOL      0.051878
    155 H73       -12.1140    1.9210   -2.3210 hc        1 MOL      0.011646
    156 H74       -12.1050    2.3520   -0.5800 hc        1 MOL      0.011646
    157 H75       -13.3660    0.3820   -0.1240 hx        1 MOL      0.042480
    158 H76       -13.3960   -0.2010   -1.7500 hx        1 MOL      0.042480
    159 H77       -14.6270    2.2900   -0.8270 hn        1 MOL      0.278205
    160 H78       -14.7210    1.8140   -2.3890 hn        1 MOL      0.278205
    161 H79       -15.4280    0.8790   -1.2020 hn        1 MOL      0.278205
    162 N14        -9.9030   -2.9170   -0.0720 n         1 MOL     -0.411281
    163 C49        -9.8240   -4.0110   -1.0610 c3        1 MOL      0.115811
    164 C50        -8.4000   -4.3340   -1.5710 c         1 MOL      0.355075
    165 O22        -8.2140   -4.4540   -2.7810 o         1 MOL     -0.507332
    166 C51       -10.6970   -5.1660   -0.6170 c3        1 MOL      0.014948
    167 C52       -11.0020   -6.0900   -1.7770 c3        1 MOL     -0.217396
    168 C53       -11.8890   -7.2600   -1.3460 c         1 MOL      0.720408
    169 O23       -13.1170   -7.1760   -1.2590 o         1 MOL     -0.660075
    170 O24       -11.2780   -8.2700   -1.0070 o         1 MOL     -0.660075
    171 H80       -10.4270   -3.0430    0.7730 hn        1 MOL      0.238372
    172 H81       -10.3710   -3.6480   -1.9420 h1        1 MOL      0.061962
    173 H82       -11.6350   -4.7560   -0.2480 hc        1 MOL      0.015983
    174 H83       -10.2120   -5.6980    0.1980 hc        1 MOL      0.015983
    175 H84       -10.0740   -6.5440   -2.1290 hc        1 MOL      0.047632
    176 H85       -11.5140   -5.4910   -2.5440 hc        1 MOL      0.047632
    177 N15        -7.3410   -4.4990   -0.7170 n         1 MOL     -0.265205
    178 C54        -7.3620   -4.5480    0.7590 c3        1 MOL     -0.095072
    179 H86        -7.8850   -3.6720    1.1440 h1        1 MOL      0.067269
    180 H87        -7.8770   -5.4500    1.0860 h1        1 MOL      0.067269
    181 H88        -6.3400   -4.5560    1.1370 h1        1 MOL      0.067269
    182 H89        -6.4370   -4.5550   -1.1630 hn        1 MOL      0.273659
    183 Ca1         6.1010   -4.4190   -0.2140 Ca        1 MOL      1.779670
    184 O25         5.3100   -6.1900   -2.1020 oh        1 MOL     -0.876698
    185 H90         5.9540   -6.3670   -2.7840 ho        1 MOL      0.430184
    186 H91         4.5820   -6.7740   -2.2980 ho        1 MOL      0.430184
    187 O26         5.1180   -2.3820    1.4110 oh        1 MOL     -0.876698
    188 H92         5.7000   -1.7960    1.9000 ho        1 MOL      0.430184
    189 H93         4.3550   -1.8480    1.1970 ho        1 MOL      0.430184
    190 O27         3.5420   -5.3870    0.7490 oh        1 MOL     -0.876698
    191 H94         2.8000   -4.7770    0.7160 ho        1 MOL      0.430184
    192 H95         3.1600   -6.2320    0.5330 ho        1 MOL      0.430184
@<TRIPOS>BOND
     1    1    2 1   
     2    1    4 1   
     3    1    5 1   
     4    1    6 1   
     5    2    3 2   
     6    2    7 1   
     7    7    8 1   
     8    7   15 1   
     9    8    9 1   
    10    8   11 1   
    11    8   16 1   
    12    9   10 2   
    13    9   19 1   
    14   11   12 1   
    15   11   17 1   
    16   11   18 1   
    17   12   13 1   
    18   12   14 1   
    19   19   20 1   
    20   19   28 1   
    21   20   21 1   
    22   20   23 1   
    23   20   29 1   
    24   21   22 2   
    25   21   41 1   
    26   23   24 1   
    27   23   30 1   
    28   23   31 1   
    29   24   25 1   
    30   24   32 1   
    31   24   33 1   
    32   25   26 1   
    33   25   34 1   
    34   25   35 1   
    35   26   27 1   
    36   26   36 1   
    37   26   37 1   
    38   27   38 1   
    39   27   39 1   
    40   27   40 1   
    41   41   42 1   
    42   41   49 1   
    43   42   43 1   
    44   42   45 1   
    45   42   50 1   
    46   43   44 2   
    47   43   53 1   
    48   45   46 1   
    49   45   51 1   
    50   45   52 1   
    51   46   47 1   
    52   46   48 1   
    53   53   54 1   
    54   53   57 1   
    55   54   55 1   
    56   54   58 1   
    57   54   59 1   
    58   55   56 2   
    59   55   60 1   
    60   60   61 1   
    61   60   68 1   
    62   61   62 1   
    63   61   64 1   
    64   61   69 1   
    65   62   63 2   
    66   62   72 1   
    67   64   65 1   
    68   64   70 1   
    69   64   71 1   
    70   65   66 1   
    71   65   67 1   
    72   72   73 1   
    73   72   76 1   
    74   73   74 1   
    75   73   77 1   
    76   73   78 1   
    77   74   75 2   
    78   74   79 1   
    79   79   80 1   
    80   79   86 1   
    81   80   81 1   
    82   80   83 1   
    83   80   87 1   
    84   81   82 2   
    85   81   93 1   
    86   83   84 1   
    87   83   85 1   
    88   83   88 1   
    89   84   90 1   
    90   84   91 1   
    91   84   92 1   
    92   85   89 1   
    93   93   94 1   
    94   93  101 1   
    95   94   95 1   
    96   94   97 1   
    97   94  102 1   
    98   95   96 2   
    99   95  112 1   
   100   97   98 1   
   101   97   99 1   
   102   97  103 1   
   103   98  100 1   
   104   98  104 1   
   105   98  105 1   
   106   99  106 1   
   107   99  107 1   
   108   99  108 1   
   109  100  109 1   
   110  100  110 1   
   111  100  111 1   
   112  112  113 1   
   113  112  119 1   
   114  113  114 1   
   115  113  116 1   
   116  113  120 1   
   117  114  115 2   
   118  114  126 1   
   119  116  117 1   
   120  116  118 1   
   121  116  121 1   
   122  117  123 1   
   123  117  124 1   
   124  117  125 1   
   125  118  122 1   
   126  126  127 1   
   127  126  133 1   
   128  127  128 1   
   129  127  130 1   
   130  127  134 1   
   131  128  129 2   
   132  128  140 1   
   133  130  131 1   
   134  130  132 1   
   135  130  135 1   
   136  131  137 1   
   137  131  138 1   
   138  131  139 1   
   139  132  136 1   
   140  140  141 1   
   141  140  149 1   
   142  141  142 1   
   143  141  144 1   
   144  141  150 1   
   145  142  143 2   
   146  142  162 1   
   147  144  145 1   
   148  144  151 1   
   149  144  152 1   
   150  145  146 1   
   151  145  153 1   
   152  145  154 1   
   153  146  147 1   
   154  146  155 1   
   155  146  156 1   
   156  147  148 1   
   157  147  157 1   
   158  147  158 1   
   159  148  159 1   
   160  148  160 1   
   161  148  161 1   
   162  162  163 1   
   163  162  171 1   
   164  163  164 1   
   165  163  166 1   
   166  163  172 1   
   167  164  165 2   
   168  164  177 1   
   169  166  167 1   
   170  166  173 1   
   171  166  174 1   
   172  167  168 1   
   173  167  175 1   
   174  167  176 1   
   175  168  169 1   
   176  168  170 1   
   177  177  178 1   
   178  177  182 1   
   179  178  179 1   
   180  178  180 1   
   181  178  181 1   
   182  184  185 1   
   183  184  186 1   
   184  187  188 1   
   185  187  189 1   
   186  190  191 1   
   187  190  192 1   
@<TRIPOS>SUBSTRUCTURE
     1 MOL         1 TEMP              0 ****  ****    0 ROOT
