@<TRIPOS>MOLECULE
MOL
  184   179     1     0     0
SMALL
resp


@<TRIPOS>ATOM
      1 C1         10.5630    6.4950    2.0710 c3        1 MOL     -0.262856
      2 C2          9.4220    5.4270    2.2610 c         1 MOL      0.657666
      3 O1          8.6270    5.5990    3.1590 o         1 MOL     -0.547474
      4 H1         11.0180    6.7160    3.0370 hc        1 MOL      0.063066
      5 H2         11.3210    6.1020    1.3940 hc        1 MOL      0.063066
      6 H3         10.1410    7.4090    1.6520 hc        1 MOL      0.063066
      7 N1          9.2630    4.3900    1.3700 n         1 MOL     -0.702527
      8 C3         10.2210    4.0620    0.2440 c3        1 MOL      0.480114
      9 C4         11.1290    2.8770    0.6430 c         1 MOL      0.352020
     10 O2         11.1930    2.5110    1.8240 o         1 MOL     -0.427504
     11 C5          9.4800    3.7270   -1.0890 c3        1 MOL     -0.400085
     12 C6          8.6520    2.4670   -1.2000 c         1 MOL      1.038977
     13 O3          9.1380    1.4360   -1.6280 o         1 MOL     -0.873262
     14 O4          7.4430    2.5140   -0.8910 o         1 MOL     -0.873262
     15 H4          8.5300    3.7250    1.5480 hn        1 MOL      0.405206
     16 H5         10.9010    4.8990    0.0760 h1        1 MOL     -0.037084
     17 H6         10.2110    3.7050   -1.8950 hc        1 MOL      0.047208
     18 H7          8.8390    4.5690   -1.3470 hc        1 MOL      0.047208
     19 N2         11.8020    2.2970   -0.3510 n         1 MOL     -0.473633
     20 C7         12.7360    1.0870   -0.1670 c3        1 MOL      0.196135
     21 C8         12.0550   -0.0370    0.6720 c         1 MOL      0.391827
     22 O5         12.6620   -0.7660    1.4620 o         1 MOL     -0.530905
     23 C9         14.0360    1.7170    0.3580 c3        1 MOL     -0.228592
     24 H8         11.7950    2.7720   -1.2360 hn        1 MOL      0.287035
     25 H9         12.9800    0.6990   -1.1620 h1        1 MOL      0.044194
     26 H10        14.3450    2.4740   -0.3540 hc        1 MOL      0.058727
     27 H11        13.7220    2.1200    1.3130 hc        1 MOL      0.058727
     28 H12        14.8490    1.0020    0.4510 hc        1 MOL      0.058727
     29 N3         10.8020   -0.3660    0.4020 n         1 MOL     -0.218802
     30 C10        10.0670   -1.6440    0.8240 c3        1 MOL      0.084545
     31 C11         9.2560   -2.2180   -0.3360 c         1 MOL      0.284420
     32 O6          9.2620   -1.6760   -1.4330 o         1 MOL     -0.478184
     33 C12         9.1900   -1.3070    2.0080 c3        1 MOL     -0.269975
     34 C13         8.1480   -0.2360    1.7780 c         1 MOL      0.743589
     35 O7          7.8440    0.5890    2.6790 o         1 MOL     -0.696175
     36 O8          7.6110   -0.1260    0.6660 o         1 MOL     -0.696175
     37 H13        10.2950    0.2770   -0.1850 hn        1 MOL      0.196594
     38 H14        10.8400   -2.3680    1.0990 h1        1 MOL      0.059617
     39 H15         9.8360   -0.9110    2.7910 hc        1 MOL      0.064929
     40 H16         8.6260   -2.1480    2.4050 hc        1 MOL      0.064929
     41 N4          8.5460   -3.3280   -0.0480 n         1 MOL     -0.120014
     42 C14         7.8420   -4.0270   -1.1300 c3        1 MOL     -0.424369
     43 C15         6.4540   -3.5810   -1.4280 c         1 MOL      0.783111
     44 O9          6.2060   -2.3810   -1.3120 o         1 MOL     -0.756263
     45 H17         8.7460   -3.7440    0.8510 hn        1 MOL      0.245803
     46 H18         7.7960   -5.0870   -0.9150 h1        1 MOL      0.145453
     47 H19         8.3820   -3.8940   -2.0590 h1        1 MOL      0.145453
     48 N5          5.5140   -4.5170   -1.6640 n         1 MOL     -0.447566
     49 C16         4.1010   -4.2880   -1.8550 c3        1 MOL      0.023300
     50 C17         3.4590   -4.1270   -0.4970 c         1 MOL      0.630545
     51 O10         3.4810   -5.0430    0.3480 o         1 MOL     -0.569996
     52 C18         3.5360   -5.4620   -2.7290 c3        1 MOL     -0.493102
     53 C19         2.0620   -5.5030   -2.8290 c         1 MOL      0.736170
     54 N6          1.4300   -6.6370   -2.5740 n         1 MOL     -0.796700
     55 O11         1.4270   -4.4810   -3.0500 o         1 MOL     -0.543726
     56 H20         5.8290   -5.4760   -1.7030 hn        1 MOL      0.283260
     57 H21         4.0610   -3.3530   -2.4210 h1        1 MOL      0.088276
     58 H22         3.9510   -6.3800   -2.3260 hc        1 MOL      0.139728
     59 H23         4.0050   -5.4840   -3.7180 hc        1 MOL      0.139728
     60 H24         1.9270   -7.5130   -2.6240 hn        1 MOL      0.375914
     61 H25         0.4210   -6.6210   -2.5040 hn        1 MOL      0.375914
     62 N7          3.1800   -2.8880   -0.1000 n         1 MOL     -0.307090
     63 C20         2.5100   -2.5280    1.1810 c3        1 MOL     -0.095707
     64 C21         1.7330   -1.1910    1.1250 c         1 MOL      0.476472
     65 O12         2.1260   -0.3050    0.3500 o         1 MOL     -0.539154
     66 H26         3.2360   -2.1780   -0.8150 hn        1 MOL      0.248057
     67 H27         3.2880   -2.5370    1.9380 h1        1 MOL      0.099912
     68 H28         1.7610   -3.3030    1.3010 h1        1 MOL      0.099912
     69 N8          0.6210   -1.0400    1.8830 n         1 MOL     -0.250981
     70 C22        -0.0530   -1.9090    2.8320 c3        1 MOL     -0.262533
     71 C23        -1.5960   -1.8870    2.6340 c         1 MOL      0.595942
     72 O13        -2.2410   -2.7260    3.3040 o         1 MOL     -0.554664
     73 C24         0.2910   -1.6390    4.2920 c3        1 MOL      0.328052
     74 C25         1.6480   -2.0510    4.7130 c3        1 MOL     -0.346868
     75 O14         0.1280   -0.2280    4.5120 oh        1 MOL     -0.598105
     76 H29         0.3820   -0.0590    1.9580 hn        1 MOL      0.258003
     77 H30         0.2280   -2.9250    2.5550 h1        1 MOL      0.136324
     78 H31        -0.4460   -2.1080    4.9360 h1        1 MOL      0.093345
     79 H32         1.0290    0.1180    4.5140 ho        1 MOL      0.380633
     80 H33         1.7480   -2.0350    5.8080 hc        1 MOL      0.091511
     81 H34         1.7580   -3.0820    4.3860 hc        1 MOL      0.091511
     82 H35         2.4750   -1.4260    4.3590 hc        1 MOL      0.091511
     83 N9         -2.1850   -0.9060    1.8410 n         1 MOL     -0.348719
     84 C26        -3.5630   -0.5590    1.5450 c3        1 MOL     -0.059830
     85 C27        -3.8800   -0.4670    0.0040 c         1 MOL      0.378331
     86 O15        -3.0260   -0.0100   -0.7540 o         1 MOL     -0.514652
     87 C28        -4.0670    0.6630    2.4100 c3        1 MOL      0.303402
     88 C29        -3.5780    2.0030    1.9190 c3        1 MOL     -0.278636
     89 C30        -3.9250    0.3090    3.8840 c3        1 MOL     -0.336528
     90 C31        -4.3750    3.1090    2.5900 c3        1 MOL      0.029887
     91 H36        -1.5520   -0.3490    1.2920 hn        1 MOL      0.197006
     92 H37        -4.1910   -1.4000    1.8370 h1        1 MOL      0.075419
     93 H38        -5.1220    0.7340    2.1690 hc        1 MOL      0.079285
     94 H39        -3.8290    2.0660    0.8650 hc        1 MOL      0.090082
     95 H40        -2.5070    2.1060    2.1120 hc        1 MOL      0.090082
     96 H41        -3.8990   -0.7690    3.9520 hc        1 MOL      0.079863
     97 H42        -2.9580    0.7360    4.1730 hc        1 MOL      0.079863
     98 H43        -4.8010    0.7210    4.3910 hc        1 MOL      0.079863
     99 H44        -4.3560    2.9990    3.6710 hc        1 MOL     -0.013129
    100 H45        -3.8400    4.0380    2.4170 hc        1 MOL     -0.013129
    101 H46        -5.4320    3.0340    2.3240 hc        1 MOL     -0.013129
    102 N10        -5.0970   -0.8900   -0.3750 n         1 MOL     -0.337767
    103 C32        -6.3680   -1.3660    0.2860 c3        1 MOL      0.401478
    104 C33        -7.4900   -1.1580   -0.6790 c         1 MOL      0.324960
    105 O16        -7.3180   -0.8770   -1.8600 o         1 MOL     -0.528239
    106 C34        -6.1480   -2.8220    0.6790 c3        1 MOL     -0.433617
    107 C35        -7.3420   -3.3670    1.4520 c         1 MOL      0.602225
    108 O17        -7.8900   -2.5520    2.2340 o         1 MOL     -0.628830
    109 O18        -7.8280   -4.5570    1.2890 o         1 MOL     -0.628830
    110 H47        -5.1670   -0.9570   -1.3810 hn        1 MOL      0.265429
    111 H48        -6.5400   -0.7570    1.1710 h1        1 MOL     -0.125946
    112 H49        -5.2150   -2.9790    1.2290 hc        1 MOL      0.093816
    113 H50        -5.9080   -3.4510   -0.1740 hc        1 MOL      0.093816
    114 N11        -8.7290   -1.1430   -0.0760 n         1 MOL     -0.004900
    115 C36        -9.9530   -0.4000   -0.5390 c3        1 MOL      0.229760
    116 C37       -10.6760    0.5000    0.5120 c         1 MOL      0.082680
    117 O19       -10.4870    0.1190    1.6650 o         1 MOL     -0.430362
    118 C38       -10.8850   -1.4750   -1.1710 c3        1 MOL     -0.238724
    119 C39       -11.3870   -2.5680   -0.2580 ca        1 MOL      0.098482
    120 C40       -10.7200   -3.7590   -0.1560 ca        1 MOL     -0.021339
    121 C41       -12.6830   -2.4610    0.3240 ca        1 MOL     -0.021339
    122 C42       -11.2130   -4.8150    0.5910 ca        1 MOL     -0.309624
    123 C43       -13.2460   -3.5500    1.0400 ca        1 MOL     -0.309624
    124 C44       -12.4380   -4.6970    1.2430 ca        1 MOL      0.032596
    125 H51        -8.7600   -1.3640    0.9090 hn        1 MOL      0.179244
    126 H52        -9.6490    0.3190   -1.2990 h1        1 MOL     -0.022740
    127 H53       -10.3780   -1.9790   -2.0030 hc        1 MOL      0.050662
    128 H54       -11.7900   -1.0150   -1.5740 hc        1 MOL      0.050662
    129 H55        -9.7510   -3.8510   -0.6240 ha        1 MOL      0.067229
    130 H56       -13.2320   -1.5360    0.2190 ha        1 MOL      0.067229
    131 H57       -10.5610   -5.6590    0.7350 ha        1 MOL      0.141132
    132 H58       -14.1770   -3.4940    1.5700 ha        1 MOL      0.141132
    133 H59       -12.7170   -5.4590    1.9500 ha        1 MOL      0.068755
    134 N12       -11.4350    1.6050    0.1350 n         1 MOL      0.067808
    135 C45       -11.6050    2.1160   -1.2000 c3        1 MOL     -0.249622
    136 C46       -10.3200    2.6760   -1.7350 c         1 MOL      0.552304
    137 O20       -10.1830    2.8100   -2.9300 o         1 MOL     -0.546103
    138 C47       -12.6600    3.2430   -1.0530 c3        1 MOL     -0.125048
    139 C48       -12.4470    3.7970    0.3390 c3        1 MOL      0.018755
    140 C49       -11.7930    2.6460    1.0660 c3        1 MOL     -0.102187
    141 H60       -11.9990    1.3200   -1.8360 h1        1 MOL      0.143167
    142 H61       -12.4330    4.0380   -1.7660 hc        1 MOL      0.062157
    143 H62       -13.6770    2.9010   -1.2360 hc        1 MOL      0.062157
    144 H63       -11.7470    4.6360    0.3520 hc        1 MOL      0.014399
    145 H64       -13.4050    4.0540    0.7780 hc        1 MOL      0.014399
    146 H65       -11.0120    2.9040    1.7780 h1        1 MOL      0.060279
    147 H66       -12.5520    2.2010    1.7260 h1        1 MOL      0.060279
    148 N13        -9.3920    3.0900   -0.8510 n         1 MOL     -0.268738
    149 C50        -8.1380    3.8290   -1.0870 c3        1 MOL      0.138991
    150 C51        -7.9560    4.9680   -0.0600 c         1 MOL      0.371954
    151 O21        -8.5250    4.8260    1.0080 o         1 MOL     -0.568230
    152 C52        -6.9540    2.8410   -1.1430 c3        1 MOL      0.073482
    153 C53        -6.7040    2.0530   -2.4150 c3        1 MOL     -0.037068
    154 C54        -6.0920    3.0460   -3.4680 c         1 MOL      0.686338
    155 O22        -6.9360    3.7950   -3.9880 o         1 MOL     -0.730840
    156 O23        -4.8980    2.9710   -3.7030 o         1 MOL     -0.730840
    157 H67        -9.5350    2.9590    0.1440 hn        1 MOL      0.267510
    158 H68        -8.2340    4.3470   -2.0370 h1        1 MOL      0.071214
    159 H69        -7.1640    2.0860   -0.3880 hc        1 MOL     -0.039970
    160 H70        -6.0350    3.3760   -0.9510 hc        1 MOL     -0.039970
    161 H71        -7.6630    1.7340   -2.8190 hc        1 MOL     -0.012932
    162 H72        -5.9880    1.2800   -2.1150 hc        1 MOL     -0.012932
    163 N14        -7.1880    6.0400   -0.2780 n         1 MOL     -0.344183
    164 C55        -6.6290    6.5310   -1.5330 c3        1 MOL     -0.081427
    165 H73        -7.3550    6.3900   -2.3330 h1        1 MOL      0.066435
    166 H74        -6.3960    7.5920   -1.4370 h1        1 MOL      0.066435
    167 H75        -5.7180    5.9790   -1.7660 h1        1 MOL      0.066435
    168 H76        -6.8980    6.5720    0.5320 hn        1 MOL      0.269417
    169 Ca1         6.9190    0.1270   -1.7340 Ca        1 MOL      1.814105
    170 O24         4.7990    2.2030   -1.8770 oh        1 MOL     -0.793765
    171 H77         5.3330    2.8220   -1.3890 ho        1 MOL      0.396406
    172 H78         3.9860    2.1350   -1.3600 ho        1 MOL      0.396406
    173 O25         7.6390   -1.2240   -3.9620 oh        1 MOL     -0.793765
    174 H79         7.7640   -2.0380   -4.4540 ho        1 MOL      0.396406
    175 H80         7.6010   -0.5480   -4.6390 ho        1 MOL      0.396406
    176 O26         6.7560    1.6090   -4.1480 oh        1 MOL     -0.793765
    177 H81         7.2490    2.0990   -4.8080 ho        1 MOL      0.396406
    178 H82         5.9240    2.0760   -4.0660 ho        1 MOL      0.396406
    179 O27         4.7200    0.3240    0.0210 oh        1 MOL     -0.793765
    180 H83         3.7840    0.0900   -0.0850 ho        1 MOL      0.396406
    181 H84         4.7800    0.6510    0.9160 ho        1 MOL      0.396406
    182 O28         4.7410   -0.4720   -3.0130 oh        1 MOL     -0.793765
    183 H85         3.8790   -0.7000   -2.6840 ho        1 MOL      0.396406
    184 H86         4.7230   -0.7100   -3.9440 ho        1 MOL      0.396406
@<TRIPOS>BOND
     1    1    2 1   
     2    1    4 1   
     3    1    5 1   
     4    1    6 1   
     5    2    3 2   
     6    2    7 1   
     7    7    8 1   
     8    7   15 1   
     9    8    9 1   
    10    8   11 1   
    11    8   16 1   
    12    9   10 2   
    13    9   19 1   
    14   11   12 1   
    15   11   17 1   
    16   11   18 1   
    17   12   13 1   
    18   12   14 1   
    19   19   20 1   
    20   19   24 1   
    21   20   21 1   
    22   20   23 1   
    23   20   25 1   
    24   21   22 2   
    25   21   29 1   
    26   23   26 1   
    27   23   27 1   
    28   23   28 1   
    29   29   30 1   
    30   29   37 1   
    31   30   31 1   
    32   30   33 1   
    33   30   38 1   
    34   31   32 2   
    35   31   41 1   
    36   33   34 1   
    37   33   39 1   
    38   33   40 1   
    39   34   35 1   
    40   34   36 1   
    41   41   42 1   
    42   41   45 1   
    43   42   43 1   
    44   42   46 1   
    45   42   47 1   
    46   43   44 2   
    47   43   48 1   
    48   48   49 1   
    49   48   56 1   
    50   49   50 1   
    51   49   52 1   
    52   49   57 1   
    53   50   51 2   
    54   50   62 1   
    55   52   53 1   
    56   52   58 1   
    57   52   59 1   
    58   53   54 1   
    59   53   55 2   
    60   54   60 1   
    61   54   61 1   
    62   62   63 1   
    63   62   66 1   
    64   63   64 1   
    65   63   67 1   
    66   63   68 1   
    67   64   65 2   
    68   64   69 1   
    69   69   70 1   
    70   69   76 1   
    71   70   71 1   
    72   70   73 1   
    73   70   77 1   
    74   71   72 2   
    75   71   83 1   
    76   73   74 1   
    77   73   75 1   
    78   73   78 1   
    79   74   80 1   
    80   74   81 1   
    81   74   82 1   
    82   75   79 1   
    83   83   84 1   
    84   83   91 1   
    85   84   85 1   
    86   84   87 1   
    87   84   92 1   
    88   85   86 2   
    89   85  102 1   
    90   87   88 1   
    91   87   89 1   
    92   87   93 1   
    93   88   90 1   
    94   88   94 1   
    95   88   95 1   
    96   89   96 1   
    97   89   97 1   
    98   89   98 1   
    99   90   99 1   
   100   90  100 1   
   101   90  101 1   
   102  102  103 1   
   103  102  110 1   
   104  103  104 1   
   105  103  106 1   
   106  103  111 1   
   107  104  105 2   
   108  104  114 1   
   109  106  107 1   
   110  106  112 1   
   111  106  113 1   
   112  107  108 1   
   113  107  109 1   
   114  114  115 1   
   115  114  125 1   
   116  115  116 1   
   117  115  118 1   
   118  115  126 1   
   119  116  117 2   
   120  116  134 1   
   121  118  119 1   
   122  118  127 1   
   123  118  128 1   
   124  119  120 ar  
   125  119  121 ar  
   126  120  122 ar  
   127  120  129 1   
   128  121  123 ar  
   129  121  130 1   
   130  122  124 ar  
   131  122  131 1   
   132  123  124 ar  
   133  123  132 1   
   134  124  133 1   
   135  134  135 1   
   136  134  140 1   
   137  135  136 1   
   138  135  138 1   
   139  135  141 1   
   140  136  137 2   
   141  136  148 1   
   142  138  139 1   
   143  138  142 1   
   144  138  143 1   
   145  139  140 1   
   146  139  144 1   
   147  139  145 1   
   148  140  146 1   
   149  140  147 1   
   150  148  149 1   
   151  148  157 1   
   152  149  150 1   
   153  149  152 1   
   154  149  158 1   
   155  150  151 2   
   156  150  163 1   
   157  152  153 1   
   158  152  159 1   
   159  152  160 1   
   160  153  154 1   
   161  153  161 1   
   162  153  162 1   
   163  154  155 1   
   164  154  156 1   
   165  163  164 1   
   166  163  168 1   
   167  164  165 1   
   168  164  166 1   
   169  164  167 1   
   170  170  171 1   
   171  170  172 1   
   172  173  174 1   
   173  173  175 1   
   174  176  177 1   
   175  176  178 1   
   176  179  180 1   
   177  179  181 1   
   178  182  183 1   
   179  182  184 1   
@<TRIPOS>SUBSTRUCTURE
     1 MOL         1 TEMP              0 ****  ****    0 ROOT
