@<TRIPOS>MOLECULE
MOL
  181   177     1     0     0
SMALL
resp


@<TRIPOS>ATOM
      1 C1          8.8270    6.5040   -3.2620 c3        1 MOL     -0.258853
      2 C2          7.8180    5.6070   -2.4930 c         1 MOL      0.601867
      3 O1          6.6670    5.4680   -2.9420 o         1 MOL     -0.545155
      4 H1          9.8430    6.1700   -3.0520 hc        1 MOL      0.056768
      5 H2          8.6360    6.4330   -4.3320 hc        1 MOL      0.056768
      6 H3          8.7130    7.5390   -2.9400 hc        1 MOL      0.056768
      7 N1          8.2760    5.1110   -1.3460 n         1 MOL     -0.363139
      8 C3          9.5700    5.1170   -0.7600 c3        1 MOL      0.009710
      9 C4          9.4680    4.7980    0.7680 c         1 MOL      0.558281
     10 O2          8.4170    5.0690    1.3380 o         1 MOL     -0.473746
     11 C5         10.3940    4.0440   -1.5010 c3        1 MOL     -0.167973
     12 C6          9.8720    2.5520   -1.3920 c         1 MOL      0.617839
     13 O3         10.1930    1.9450   -0.3710 o         1 MOL     -0.663661
     14 O4          9.2940    1.9920   -2.3700 o         1 MOL     -0.663661
     15 H4          7.5160    4.9680   -0.6970 hn        1 MOL      0.268091
     16 H5         10.0060    6.1020   -0.9310 h1        1 MOL      0.063141
     17 H6         11.3920    4.0810   -1.0600 hc        1 MOL      0.020630
     18 H7         10.5390    4.2430   -2.5680 hc        1 MOL      0.020630
     19 N2         10.5430    4.3300    1.4720 n         1 MOL     -0.565853
     20 C7         10.4830    4.0540    2.9480 c3        1 MOL      0.079987
     21 C8          9.3790    3.0960    3.4680 c         1 MOL      0.424341
     22 O5          9.4220    2.7050    4.6540 o         1 MOL     -0.563157
     23 C9         10.4640    5.4100    3.5930 c3        1 MOL     -0.276434
     24 H8         11.3440    3.9950    0.9550 hn        1 MOL      0.336659
     25 H9         11.4220    3.5270    3.1220 h1        1 MOL      0.102825
     26 H10        11.3560    5.9990    3.3990 hc        1 MOL      0.084916
     27 H11         9.7480    6.1360    3.1950 hc        1 MOL      0.084916
     28 H12        10.4460    5.3990    4.6870 hc        1 MOL      0.084916
     29 N3          8.5040    2.5430    2.5960 n         1 MOL      0.025762
     30 C10         7.6900    1.3870    2.7640 c3        1 MOL     -0.157006
     31 C11         8.4410    0.1100    2.3070 c         1 MOL      0.575287
     32 O6          9.4150    0.2110    1.4970 o         1 MOL     -0.603843
     33 C12         6.4670    1.4460    1.8160 c3        1 MOL     -0.041326
     34 C13         6.7330    1.6440    0.3170 c         1 MOL      0.642206
     35 O7          7.1090    0.7150   -0.3590 o         1 MOL     -0.624707
     36 O8          6.4060    2.7790   -0.1410 o         1 MOL     -0.624707
     37 H13         8.5630    3.0440    1.7190 hn        1 MOL      0.042558
     38 H14         7.3110    1.3330    3.7800 h1        1 MOL      0.087702
     39 H15         5.8750    2.2220    2.3000 hc        1 MOL      0.014554
     40 H16         5.8880    0.5280    1.9810 hc        1 MOL      0.014554
     41 N4          7.9050   -1.0350    2.7360 n         1 MOL     -0.451801
     42 C14         8.2660   -2.3900    2.5190 c3        1 MOL     -0.171345
     43 C15         7.8170   -2.7940    1.1590 c         1 MOL      0.492567
     44 O9          8.4300   -2.4650    0.1610 o         1 MOL     -0.661679
     45 H17         6.9930   -0.9050    3.1490 hn        1 MOL      0.313929
     46 H18         7.9240   -2.9800    3.3570 h1        1 MOL      0.133965
     47 H19         9.3470   -2.4810    2.4990 h1        1 MOL      0.133965
     48 N5          6.7510   -3.6140    1.0510 n         1 MOL     -0.426271
     49 C16         6.2130   -4.1560   -0.1700 c3        1 MOL      0.035195
     50 C17         4.6510   -4.1710   -0.1180 c         1 MOL      0.609639
     51 O10         3.9650   -5.0730    0.3900 o         1 MOL     -0.521165
     52 C18         6.7990   -5.6160   -0.2520 c3        1 MOL     -0.125032
     53 C19         8.3120   -5.6520   -0.4310 c         1 MOL      0.643227
     54 N6          9.0980   -5.5230    0.6300 n         1 MOL     -0.661609
     55 O11         8.7030   -5.9470   -1.5540 o         1 MOL     -0.567423
     56 H20         6.3100   -3.8940    1.9160 hn        1 MOL      0.328083
     57 H21         6.6480   -3.6930   -1.0560 h1        1 MOL      0.083317
     58 H22         6.2770   -6.1250   -1.0590 hc        1 MOL      0.033862
     59 H23         6.4670   -6.0060    0.7150 hc        1 MOL      0.033862
     60 H24         8.7080   -5.4530    1.5640 hn        1 MOL      0.320454
     61 H25        10.0300   -5.8760    0.4460 hn        1 MOL      0.320454
     62 N7          4.0810   -3.1350   -0.6720 n         1 MOL     -0.617282
     63 C20         2.6130   -3.0790   -0.8200 c3        1 MOL      0.025942
     64 C21         1.8310   -3.1420    0.4860 c         1 MOL      0.662754
     65 O12         2.2650   -2.5860    1.4890 o         1 MOL     -0.580720
     66 H26         4.6480   -2.3630   -1.0140 hn        1 MOL      0.370456
     67 H27         2.2060   -3.8760   -1.4370 h1        1 MOL      0.087081
     68 H28         2.3180   -2.1660   -1.3280 h1        1 MOL      0.087081
     69 N8          0.5990   -3.5820    0.5270 n         1 MOL     -0.580309
     70 C22        -0.4180   -3.8110   -0.5310 c3        1 MOL     -0.096307
     71 C23        -1.7360   -3.1650   -0.0330 c         1 MOL      0.806856
     72 O13        -1.9840   -3.2100    1.1730 o         1 MOL     -0.576765
     73 C24        -0.4710   -5.3020   -0.9550 c3        1 MOL      0.380213
     74 C25        -1.0660   -6.2770    0.0730 c3        1 MOL     -0.431422
     75 O14        -1.1500   -5.3020   -2.1430 oh        1 MOL     -0.676483
     76 H29         0.2120   -3.7000    1.4570 hn        1 MOL      0.336081
     77 H30        -0.1660   -3.1130   -1.3270 h1        1 MOL      0.043591
     78 H31         0.5070   -5.7490   -1.1460 h1        1 MOL     -0.005613
     79 H32        -1.1330   -6.1680   -2.5700 ho        1 MOL      0.422424
     80 H33        -0.4360   -6.2640    0.9700 hc        1 MOL      0.120072
     81 H34        -2.0790   -6.0510    0.4020 hc        1 MOL      0.120072
     82 H35        -1.1280   -7.2970   -0.3050 hc        1 MOL      0.120072
     83 N9         -2.5230   -2.4920   -0.8990 n         1 MOL     -0.655123
     84 C26        -3.9030   -2.0170   -0.6450 c3        1 MOL      0.050630
     85 C27        -4.9350   -3.1420   -0.8070 c         1 MOL      0.396698
     86 O15        -4.7690   -4.1520   -1.4560 o         1 MOL     -0.564524
     87 C28        -4.4200   -0.7890   -1.4500 c3        1 MOL      0.032593
     88 C29        -4.5460   -0.9840   -2.9170 c3        1 MOL      0.341113
     89 C30        -3.4350    0.3180   -1.0900 c3        1 MOL      0.033782
     90 C31        -4.7890    0.1930   -3.8370 c3        1 MOL     -0.719897
     91 H36        -2.2290   -2.4910   -1.8580 hn        1 MOL      0.358920
     92 H37        -3.9030   -1.8370    0.4160 h1        1 MOL      0.131467
     93 H38        -5.3920   -0.4910   -1.0440 hc        1 MOL      0.041594
     94 H39        -5.4000   -1.6570   -3.0200 hc        1 MOL     -0.042341
     95 H40        -3.7210   -1.5670   -3.3110 hc        1 MOL     -0.042341
     96 H41        -3.4610    0.5120   -0.0200 hc        1 MOL     -0.027146
     97 H42        -2.4210    0.0590   -1.4070 hc        1 MOL     -0.027146
     98 H43        -3.6920    1.2480   -1.5930 hc        1 MOL     -0.027146
     99 H44        -3.9710    0.8700   -4.0670 hc        1 MOL      0.167323
    100 H45        -5.2410   -0.1660   -4.7620 hc        1 MOL      0.167323
    101 H46        -5.6450    0.7780   -3.5170 hc        1 MOL      0.167323
    102 N10        -6.0800   -3.1730   -0.1180 n         1 MOL     -0.274522
    103 C32        -6.6980   -2.2970    0.8540 c3        1 MOL      0.147926
    104 C33        -7.9470   -1.6300    0.2630 c         1 MOL      0.543090
    105 O16        -8.0780   -1.5750   -0.9120 o         1 MOL     -0.557551
    106 C34        -7.0440   -3.2630    1.9630 c3        1 MOL     -0.258433
    107 C35        -7.9240   -4.5070    1.5240 c         1 MOL      0.692957
    108 O17        -8.3910   -5.2700    2.3610 o         1 MOL     -0.671250
    109 O18        -8.1850   -4.7180    0.2960 o         1 MOL     -0.671250
    110 H47        -6.6720   -3.9520   -0.3790 hn        1 MOL      0.248204
    111 H48        -6.0250   -1.5100    1.1930 h1        1 MOL     -0.005115
    112 H49        -7.5340   -2.7020    2.7530 hc        1 MOL      0.041287
    113 H50        -6.1650   -3.6750    2.4590 hc        1 MOL      0.041287
    114 N11        -8.8540   -1.1010    1.0490 n         1 MOL     -0.480810
    115 C36       -10.0040   -0.3640    0.5500 c3        1 MOL      0.312945
    116 C37       -10.4010    0.7470    1.6010 c         1 MOL      0.197533
    117 O19       -10.3060    0.4780    2.8070 o         1 MOL     -0.503933
    118 C38       -11.2660   -1.3080    0.4800 c3        1 MOL     -0.326768
    119 C39       -12.5080   -0.7300   -0.1700 ca        1 MOL      0.074047
    120 C40       -13.5310   -0.1450    0.5920 ca        1 MOL     -0.115220
    121 C41       -12.6920   -0.8450   -1.5850 ca        1 MOL     -0.115220
    122 C42       -14.6180    0.3700   -0.0570 ca        1 MOL     -0.184179
    123 C43       -13.8000   -0.3210   -2.2050 ca        1 MOL     -0.184179
    124 C44       -14.7330    0.3610   -1.4640 ca        1 MOL     -0.032773
    125 H51        -8.7890   -1.1470    2.0580 hn        1 MOL      0.314594
    126 H52        -9.8520    0.1520   -0.3950 h1        1 MOL      0.023558
    127 H53       -11.6180   -1.6030    1.4720 hc        1 MOL      0.123457
    128 H54       -11.0040   -2.1710   -0.1300 hc        1 MOL      0.123457
    129 H55       -13.5400   -0.1700    1.6630 ha        1 MOL      0.124967
    130 H56       -11.8750   -1.2930   -2.1440 ha        1 MOL      0.124967
    131 H57       -15.3220    0.8580    0.5980 ha        1 MOL      0.109637
    132 H58       -14.1120   -0.3750   -3.2250 ha        1 MOL      0.109637
    133 H59       -15.6990    0.6240   -1.8570 ha        1 MOL      0.059466
    134 N12       -10.9370    1.8690    1.2770 n         1 MOL      0.180487
    135 C45       -11.1380    2.4180   -0.0760 c3        1 MOL      0.051222
    136 C46        -9.8650    2.8890   -0.7780 c         1 MOL      0.311226
    137 O20        -9.6150    2.8630   -1.9940 o         1 MOL     -0.556567
    138 C47       -12.0980    3.6190    0.0620 c3        1 MOL      0.014015
    139 C48       -12.6760    3.4780    1.4210 c3        1 MOL      0.045844
    140 C49       -11.6070    2.7790    2.2030 c3        1 MOL     -0.360772
    141 H60       -11.6740    1.6850   -0.6750 h1        1 MOL      0.039511
    142 H61       -11.4850    4.5130   -0.0670 hc        1 MOL      0.002101
    143 H62       -12.8960    3.5750   -0.6840 hc        1 MOL      0.002101
    144 H63       -12.9050    4.4610    1.8390 hc        1 MOL     -0.010619
    145 H64       -13.6140    2.9250    1.4400 hc        1 MOL     -0.010619
    146 H65       -10.9490    3.5600    2.5900 h1        1 MOL      0.154160
    147 H66       -12.1520    2.3290    3.0300 h1        1 MOL      0.154160
    148 N13        -8.8640    3.3450   -0.0000 n         1 MOL     -0.079532
    149 C50        -7.6220    3.9650   -0.4900 c3        1 MOL      0.110758
    150 C51        -7.8880    5.4650   -0.8830 c         1 MOL      0.391437
    151 O21        -7.9660    6.3190   -0.0110 o         1 MOL     -0.545411
    152 C52        -6.4990    3.7840    0.4890 c3        1 MOL      0.110238
    153 C53        -6.2510    2.3410    1.0570 c3        1 MOL     -0.274229
    154 C54        -7.0640    2.1120    2.3250 c         1 MOL      0.811125
    155 O22        -6.6520    1.2960    3.1650 o         1 MOL     -0.699467
    156 O23        -8.0870    2.7630    2.5460 o         1 MOL     -0.699467
    157 H67        -8.8460    3.1000    0.9660 hn        1 MOL      0.068920
    158 H68        -7.4840    3.3240   -1.3670 h1        1 MOL      0.038740
    159 H69        -6.6420    4.4510    1.3400 hc        1 MOL     -0.018036
    160 H70        -5.6350    4.1070   -0.0870 hc        1 MOL     -0.018036
    161 H71        -5.1730    2.2810    1.2410 hc        1 MOL      0.031647
    162 H72        -6.5590    1.5440    0.3910 hc        1 MOL      0.031647
    163 N14        -7.9730    5.8640   -2.1760 n         1 MOL     -0.329531
    164 C55        -7.6280    5.1250   -3.4490 c3        1 MOL     -0.139218
    165 H73        -8.1340    5.5970   -4.2910 h1        1 MOL      0.074556
    166 H74        -6.5500    5.1590   -3.6090 h1        1 MOL      0.074556
    167 H75        -7.9510    4.0880   -3.3670 h1        1 MOL      0.074556
    168 H76        -8.0130    6.8730   -2.2830 hn        1 MOL      0.252870
    169 Ca1         9.4380   -0.3580   -1.0960 Ca        1 MOL      1.742438
    170 O24         9.6920   -3.0240   -2.1510 oh        1 MOL     -0.807855
    171 H77        10.4390   -3.3940   -2.6180 ho        1 MOL      0.392156
    172 H78         9.3050   -3.7690   -1.6870 ho        1 MOL      0.392156
    173 O25        11.6570   -1.4510   -0.1290 oh        1 MOL     -0.807855
    174 H79        11.8380   -2.2840    0.3080 ho        1 MOL      0.392156
    175 H80        12.4900   -1.1830   -0.5140 ho        1 MOL      0.392156
    176 O26         7.6340   -0.6960   -3.2520 oh        1 MOL     -0.807855
    177 H81         6.7180   -0.9760   -3.1740 ho        1 MOL      0.392156
    178 H82         8.0120   -1.3070   -3.8930 ho        1 MOL      0.392156
    179 O27        11.0000   -0.1330   -3.3970 oh        1 MOL     -0.807855
    180 H83        10.7600   -0.6850   -4.1420 ho        1 MOL      0.392156
    181 H84        11.6650    0.4600   -3.7470 ho        1 MOL      0.392156
@<TRIPOS>BOND
     1    1    2 1   
     2    1    4 1   
     3    1    5 1   
     4    1    6 1   
     5    2    3 2   
     6    2    7 1   
     7    7    8 1   
     8    7   15 1   
     9    8    9 1   
    10    8   11 1   
    11    8   16 1   
    12    9   10 2   
    13    9   19 1   
    14   11   12 1   
    15   11   17 1   
    16   11   18 1   
    17   12   13 1   
    18   12   14 1   
    19   19   20 1   
    20   19   24 1   
    21   20   21 1   
    22   20   23 1   
    23   20   25 1   
    24   21   22 2   
    25   21   29 1   
    26   23   26 1   
    27   23   27 1   
    28   23   28 1   
    29   29   30 1   
    30   29   37 1   
    31   30   31 1   
    32   30   33 1   
    33   30   38 1   
    34   31   32 2   
    35   31   41 1   
    36   33   34 1   
    37   33   39 1   
    38   33   40 1   
    39   34   35 1   
    40   34   36 1   
    41   41   42 1   
    42   41   45 1   
    43   42   43 1   
    44   42   46 1   
    45   42   47 1   
    46   43   44 2   
    47   43   48 1   
    48   48   49 1   
    49   48   56 1   
    50   49   50 1   
    51   49   52 1   
    52   49   57 1   
    53   50   51 2   
    54   50   62 1   
    55   52   53 1   
    56   52   58 1   
    57   52   59 1   
    58   53   54 1   
    59   53   55 2   
    60   54   60 1   
    61   54   61 1   
    62   62   63 1   
    63   62   66 1   
    64   63   64 1   
    65   63   67 1   
    66   63   68 1   
    67   64   65 2   
    68   64   69 1   
    69   69   70 1   
    70   69   76 1   
    71   70   71 1   
    72   70   73 1   
    73   70   77 1   
    74   71   72 2   
    75   71   83 1   
    76   73   74 1   
    77   73   75 1   
    78   73   78 1   
    79   74   80 1   
    80   74   81 1   
    81   74   82 1   
    82   75   79 1   
    83   83   84 1   
    84   83   91 1   
    85   84   85 1   
    86   84   87 1   
    87   84   92 1   
    88   85   86 2   
    89   85  102 1   
    90   87   88 1   
    91   87   89 1   
    92   87   93 1   
    93   88   90 1   
    94   88   94 1   
    95   88   95 1   
    96   89   96 1   
    97   89   97 1   
    98   89   98 1   
    99   90   99 1   
   100   90  100 1   
   101   90  101 1   
   102  102  103 1   
   103  102  110 1   
   104  103  104 1   
   105  103  106 1   
   106  103  111 1   
   107  104  105 2   
   108  104  114 1   
   109  106  107 1   
   110  106  112 1   
   111  106  113 1   
   112  107  108 1   
   113  107  109 1   
   114  114  115 1   
   115  114  125 1   
   116  115  116 1   
   117  115  118 1   
   118  115  126 1   
   119  116  117 2   
   120  116  134 1   
   121  118  119 1   
   122  118  127 1   
   123  118  128 1   
   124  119  120 ar  
   125  119  121 ar  
   126  120  122 ar  
   127  120  129 1   
   128  121  123 ar  
   129  121  130 1   
   130  122  124 ar  
   131  122  131 1   
   132  123  124 ar  
   133  123  132 1   
   134  124  133 1   
   135  134  135 1   
   136  134  140 1   
   137  135  136 1   
   138  135  138 1   
   139  135  141 1   
   140  136  137 2   
   141  136  148 1   
   142  138  139 1   
   143  138  142 1   
   144  138  143 1   
   145  139  140 1   
   146  139  144 1   
   147  139  145 1   
   148  140  146 1   
   149  140  147 1   
   150  148  149 1   
   151  148  157 1   
   152  149  150 1   
   153  149  152 1   
   154  149  158 1   
   155  150  151 2   
   156  150  163 1   
   157  152  153 1   
   158  152  159 1   
   159  152  160 1   
   160  153  154 1   
   161  153  161 1   
   162  153  162 1   
   163  154  155 1   
   164  154  156 1   
   165  163  164 1   
   166  163  168 1   
   167  164  165 1   
   168  164  166 1   
   169  164  167 1   
   170  170  171 1   
   171  170  172 1   
   172  173  174 1   
   173  173  175 1   
   174  176  177 1   
   175  176  178 1   
   176  179  180 1   
   177  179  181 1   
@<TRIPOS>SUBSTRUCTURE
     1 MOL         1 TEMP              0 ****  ****    0 ROOT
