@<TRIPOS>MOLECULE
MOL
  192   187     1     0     0
SMALL
resp


@<TRIPOS>ATOM
      1 C1        -11.0450    4.8160    3.2920 c3        1 MOL     -0.595947
      2 C2        -10.9860    3.8050    2.1150 c         1 MOL      0.673838
      3 O1        -11.3510    2.6560    2.2660 o         1 MOL     -0.558646
      4 H1        -12.0450    4.8080    3.7280 hc        1 MOL      0.160108
      5 H2        -10.3150    4.5340    4.0510 hc        1 MOL      0.160108
      6 H3        -10.8180    5.8170    2.9240 hc        1 MOL      0.160108
      7 N1        -10.4460    4.2790    0.9740 n         1 MOL     -0.228803
      8 C3        -10.2090    3.4570   -0.1610 c3        1 MOL     -0.384513
      9 C4         -9.1640    2.3340    0.1660 c         1 MOL      0.511577
     10 O2         -8.2870    2.4750    0.9710 o         1 MOL     -0.554032
     11 C5         -9.6230    4.2490   -1.3130 c3        1 MOL      0.166769
     12 C6         -8.6700    5.3770   -1.0580 c         1 MOL      0.619773
     13 O3         -8.1540    5.5430    0.0590 o         1 MOL     -0.679865
     14 O4         -8.2920    6.0680   -2.0990 o         1 MOL     -0.679865
     15 H4         -9.9050    5.1050    1.1470 hn        1 MOL      0.119673
     16 H5        -11.1300    2.9630   -0.4850 h1        1 MOL      0.146682
     17 H6        -10.4820    4.6270   -1.8620 hc        1 MOL     -0.003673
     18 H7         -9.0830    3.6360   -2.0420 hc        1 MOL     -0.003673
     19 N2         -9.4450    1.1540   -0.4120 n         1 MOL     -0.269918
     20 C7         -8.8580   -0.1180   -0.1590 c3        1 MOL     -0.046304
     21 C8         -7.3580   -0.2920   -0.4830 c         1 MOL      0.502618
     22 O5         -6.6560   -1.0680    0.1530 o         1 MOL     -0.529995
     23 C9         -9.6700   -1.2690   -0.9640 c3        1 MOL     -0.195699
     24 C10        -9.5630   -2.5830   -0.2750 c3        1 MOL      0.111025
     25 C11       -10.3500   -3.7230   -1.0180 c3        1 MOL     -0.227231
     26 C12       -10.1700   -5.0620   -0.2740 c3        1 MOL      0.066974
     27 N3        -10.6960   -6.0970   -1.2140 n4        1 MOL     -0.177176
     28 H8        -10.1940    1.1390   -1.0860 hn        1 MOL      0.213619
     29 H9         -8.9100   -0.3520    0.9010 h1        1 MOL      0.126470
     30 H10        -9.1800   -1.3320   -1.9390 hc        1 MOL      0.076487
     31 H11       -10.7150   -0.9640   -1.0270 hc        1 MOL      0.076487
     32 H12        -9.8910   -2.4580    0.7590 hc        1 MOL      0.026776
     33 H13        -8.5110   -2.8760   -0.2380 hc        1 MOL      0.026776
     34 H14        -9.8850   -3.7650   -2.0050 hc        1 MOL      0.085851
     35 H15       -11.3920   -3.4320   -1.1520 hc        1 MOL      0.085851
     36 H16       -10.7520   -5.1960    0.6330 hx        1 MOL      0.084467
     37 H17        -9.1320   -5.2490    0.0130 hx        1 MOL      0.084467
     38 H18       -10.0580   -5.9880   -1.9920 hn        1 MOL      0.258883
     39 H19       -10.5650   -7.0760   -0.9840 hn        1 MOL      0.258883
     40 H20       -11.5980   -6.0320   -1.6510 hn        1 MOL      0.258883
     41 N4         -6.8020    0.5120   -1.4060 n         1 MOL     -0.391478
     42 C13        -5.3180    0.5100   -1.5080 c3        1 MOL      0.154662
     43 C14        -4.6840    0.9490   -0.1640 c         1 MOL      0.311895
     44 O6         -5.3370    1.5690    0.7110 o         1 MOL     -0.513588
     45 C15        -4.8990    1.5310   -2.5780 c3        1 MOL     -0.580615
     46 C16        -5.6690    2.8370   -2.5270 c         1 MOL      0.663254
     47 O7         -6.1880    3.1970   -3.6250 o         1 MOL     -0.607247
     48 O8         -5.9850    3.3930   -1.4540 o         1 MOL     -0.607247
     49 H21        -7.3570    1.2120   -1.8800 hn        1 MOL      0.309535
     50 H22        -4.9630   -0.4900   -1.7590 h1        1 MOL      0.118402
     51 H23        -5.1940    1.1340   -3.5490 hc        1 MOL      0.166866
     52 H24        -3.8450    1.8210   -2.5180 hc        1 MOL      0.166866
     53 N5         -3.3710    0.6570    0.0340 n         1 MOL     -0.363418
     54 C17        -2.4700   -0.0480   -0.9040 c3        1 MOL     -0.081756
     55 C18        -2.8500   -1.5090   -1.1170 c         1 MOL      0.797309
     56 O9         -3.2840   -2.2110   -0.1800 o         1 MOL     -0.590116
     57 H25        -2.9720    0.9170    0.9220 hn        1 MOL      0.272991
     58 H26        -1.4990   -0.0580   -0.4080 h1        1 MOL      0.058308
     59 H27        -2.4140    0.4180   -1.8860 h1        1 MOL      0.058308
     60 N6         -2.5610   -2.0800   -2.2650 n         1 MOL     -0.715088
     61 C19        -2.8680   -3.4850   -2.4840 c3        1 MOL      0.282599
     62 C20        -1.8270   -4.4030   -1.8930 c         1 MOL      0.440013
     63 O10        -0.5960   -4.1880   -2.1480 o         1 MOL     -0.540239
     64 C21        -2.9930   -3.8390   -3.9900 c3        1 MOL     -0.125572
     65 C22        -3.7680   -5.0490   -4.3720 c         1 MOL      0.696975
     66 O11        -3.9660   -5.8750   -3.4790 o         1 MOL     -0.709922
     67 O12        -4.1750   -5.1430   -5.5920 o         1 MOL     -0.709922
     68 H28        -1.9910   -1.5370   -2.8960 hn        1 MOL      0.347927
     69 H29        -3.8320   -3.8000   -2.0830 h1        1 MOL     -0.000004
     70 H30        -1.9960   -3.8860   -4.4390 hc        1 MOL      0.012850
     71 H31        -3.5630   -3.0200   -4.4250 hc        1 MOL      0.012850
     72 N7         -2.2200   -5.2840   -0.9710 n         1 MOL     -0.210513
     73 C23        -1.3280   -6.3230   -0.4820 c3        1 MOL     -0.105894
     74 C24        -0.6860   -5.8380    0.8850 c         1 MOL      0.463149
     75 O13         0.0500   -6.5810    1.5080 o         1 MOL     -0.550351
     76 H32        -3.2250   -5.4270   -0.9380 hn        1 MOL      0.242149
     77 H33        -0.5920   -6.6610   -1.2030 h1        1 MOL      0.091582
     78 H34        -1.9480   -7.2020   -0.3010 h1        1 MOL      0.091582
     79 N8         -0.8940   -4.5480    1.2090 n         1 MOL      0.016693
     80 C25        -0.2830   -3.7610    2.2710 c3        1 MOL     -0.122735
     81 C26         0.1240   -2.4310    1.7220 c         1 MOL      0.441361
     82 O14        -0.0480   -2.1900    0.5040 o         1 MOL     -0.389774
     83 C27        -1.2530   -3.6400    3.4360 c3        1 MOL      0.131680
     84 C28        -2.5530   -2.9980    2.9830 c3        1 MOL     -0.226442
     85 O15        -1.7180   -4.8270    4.0120 oh        1 MOL     -0.557719
     86 H35        -1.3410   -3.9630    0.5190 hn        1 MOL     -0.084780
     87 H36         0.6460   -4.2270    2.5760 h1        1 MOL      0.090158
     88 H37        -0.9600   -2.9880    4.2560 h1        1 MOL      0.039432
     89 H38        -1.0690   -5.2060    4.6190 ho        1 MOL      0.381647
     90 H39        -2.3060   -1.9860    2.6520 hc        1 MOL      0.077218
     91 H40        -2.9560   -3.5720    2.1540 hc        1 MOL      0.077218
     92 H41        -3.1910   -2.8950    3.8580 hc        1 MOL      0.077218
     93 N9          0.6830   -1.5790    2.5380 n         1 MOL     -0.132162
     94 C29         1.2480   -0.2220    2.1410 c3        1 MOL     -0.086155
     95 C30         2.2850   -0.2970    1.0460 c         1 MOL      0.292802
     96 O16         2.2070    0.4260    0.0320 o         1 MOL     -0.488007
     97 C31         1.6930    0.5700    3.3970 c3        1 MOL      0.064108
     98 C32         0.5280    1.1800    4.2330 c3        1 MOL      0.092439
     99 C33         2.6110    1.7640    2.9760 c3        1 MOL     -0.485221
    100 C34        -0.5070    0.1570    4.7950 c3        1 MOL     -0.377942
    101 H42         0.7940   -1.7720    3.5230 hn        1 MOL      0.146838
    102 H43         0.4720    0.4050    1.6960 h1        1 MOL      0.129578
    103 H44         2.2470   -0.0730    4.0680 hc        1 MOL      0.049377
    104 H45         0.0520    1.9100    3.5750 hc        1 MOL      0.001415
    105 H46         0.8950    1.7800    5.0720 hc        1 MOL      0.001415
    106 H47         2.1110    2.5220    2.3690 hc        1 MOL      0.142662
    107 H48         2.9800    2.1880    3.9040 hc        1 MOL      0.142662
    108 H49         3.4570    1.4810    2.3490 hc        1 MOL      0.142662
    109 H50        -1.0430   -0.2980    3.9610 hc        1 MOL      0.095303
    110 H51         0.0980   -0.6250    5.2690 hc        1 MOL      0.095303
    111 H52        -1.1040    0.6270    5.5790 hc        1 MOL      0.095303
    112 N10         3.0650   -1.3370    1.1430 n         1 MOL     -0.167676
    113 C35         4.1500   -1.7140    0.2410 c3        1 MOL     -0.141728
    114 C36         5.2910   -2.2860    1.0460 c         1 MOL      0.543346
    115 O17         5.1330   -2.9530    2.0810 o         1 MOL     -0.505805
    116 C37         3.5530   -2.6700   -0.8000 c3        1 MOL      0.326762
    117 C38         4.5870   -3.0110   -1.9470 c3        1 MOL     -0.449966
    118 O18         2.8900   -3.8040   -0.3090 oh        1 MOL     -0.587057
    119 H53         3.0080   -1.9400    1.9520 hn        1 MOL      0.180698
    120 H54         4.5190   -0.8020   -0.2230 h1        1 MOL      0.099322
    121 H55         2.8160   -2.0480   -1.3130 h1        1 MOL      0.083132
    122 H56         3.0400   -4.5650   -0.8790 ho        1 MOL      0.424950
    123 H57         4.9670   -2.0760   -2.3590 hc        1 MOL      0.115557
    124 H58         5.3960   -3.7050   -1.7500 hc        1 MOL      0.115557
    125 H59         3.9550   -3.5240   -2.6840 hc        1 MOL      0.115557
    126 N11         6.5450   -2.0510    0.5910 n         1 MOL     -0.261368
    127 C39         7.7850   -2.2360    1.4350 c3        1 MOL     -0.565846
    128 C40         8.8980   -1.2030    1.3170 c         1 MOL      0.742075
    129 O19         9.6740   -1.0460    2.2860 o         1 MOL     -0.579235
    130 C41         8.3610   -3.6020    1.2070 c3        1 MOL      0.496800
    131 C42         8.5260   -4.0490   -0.2300 c3        1 MOL     -0.178942
    132 O20         7.6110   -4.6080    1.8420 oh        1 MOL     -0.659531
    133 H60         6.6530   -1.6640   -0.3410 hn        1 MOL      0.231694
    134 H61         7.5630   -1.9970    2.4720 h1        1 MOL      0.242790
    135 H62         9.3830   -3.6500    1.5790 h1        1 MOL      0.024288
    136 H63         6.6580   -4.4590    1.8130 ho        1 MOL      0.426759
    137 H64         9.1340   -4.9480   -0.3060 hc        1 MOL      0.036079
    138 H65         7.5470   -4.3130   -0.6500 hc        1 MOL      0.036079
    139 H66         9.0070   -3.2670   -0.8170 hc        1 MOL      0.036079
    140 N12         9.0930   -0.4800    0.1740 n         1 MOL     -0.532483
    141 C43        10.1490    0.5720   -0.0510 c3        1 MOL     -0.091652
    142 C44         9.5690    1.6630   -1.0570 c         1 MOL      0.526682
    143 O21         9.0280    1.1920   -2.0710 o         1 MOL     -0.490670
    144 C45        11.5020    0.1150   -0.5090 c3        1 MOL     -0.368527
    145 C46        12.4250   -0.2070    0.6490 c3        1 MOL      0.060524
    146 C47        13.8630   -0.6570    0.3240 c3        1 MOL     -0.170472
    147 C48        13.9780   -1.8050   -0.7110 c3        1 MOL      0.170334
    148 N13        15.3580   -2.3820   -0.6970 n4        1 MOL     -0.253519
    149 H67         8.5350   -0.6710   -0.6440 hn        1 MOL      0.328005
    150 H68        10.2910    0.9980    0.9360 h1        1 MOL      0.126595
    151 H69        11.9110    0.8930   -1.1490 hc        1 MOL      0.139196
    152 H70        11.3340   -0.7100   -1.2090 hc        1 MOL      0.139196
    153 H71        11.9920   -0.9500    1.3170 hc        1 MOL      0.064988
    154 H72        12.3950    0.6690    1.3020 hc        1 MOL      0.064988
    155 H73        14.3480   -1.0250    1.2270 hc        1 MOL      0.057899
    156 H74        14.3820    0.1730   -0.1470 hc        1 MOL      0.057899
    157 H75        13.7930   -1.3440   -1.6910 hx        1 MOL      0.048853
    158 H76        13.2960   -2.6320   -0.5570 hx        1 MOL      0.048853
    159 H77        15.6060   -2.5620    0.2600 hn        1 MOL      0.251887
    160 H78        15.5120   -3.2300   -1.2120 hn        1 MOL      0.251887
    161 H79        16.0510   -1.7220   -1.0310 hn        1 MOL      0.251887
    162 N14         9.8840    2.9380   -0.8500 n         1 MOL     -0.404743
    163 C49         9.3990    3.9920   -1.7320 c3        1 MOL      0.174121
    164 C50         7.9100    4.0870   -1.7480 c         1 MOL      0.308447
    165 O22         7.3840    3.7820   -2.7920 o         1 MOL     -0.496386
    166 C51        10.0160    5.3520   -1.3780 c3        1 MOL      0.205066
    167 C52        11.4840    5.5740   -1.8350 c3        1 MOL     -0.268583
    168 C53        12.0160    6.9330   -1.3200 c         1 MOL      0.621944
    169 O23        11.6410    7.8930   -2.0320 o         1 MOL     -0.634809
    170 O24        12.4200    7.0770   -0.0930 o         1 MOL     -0.634809
    171 H80        10.3210    3.1020    0.0420 hn        1 MOL      0.262754
    172 H81         9.7180    3.7760   -2.7530 h1        1 MOL      0.068765
    173 H82        10.1390    5.4050   -0.2920 hc        1 MOL      0.006544
    174 H83         9.4340    6.1940   -1.7450 hc        1 MOL      0.006544
    175 H84        11.5240    5.3330   -2.8970 hc        1 MOL      0.010813
    176 H85        12.1180    4.7630   -1.4810 hc        1 MOL      0.010813
    177 N15         7.1150    4.2800   -0.6680 n         1 MOL     -0.315035
    178 C54         7.4470    4.7330    0.6390 c3        1 MOL     -0.016124
    179 H86         6.5320    4.9380    1.1960 h1        1 MOL      0.030980
    180 H87         8.0220    3.9650    1.1560 h1        1 MOL      0.030980
    181 H88         8.0390    5.6460    0.5680 h1        1 MOL      0.030980
    182 H89         6.1280    4.0850   -0.8050 hn        1 MOL      0.287103
    183 Ca1        -6.1110    4.2750    0.8920 Ca        1 MOL      1.759816
    184 O25        -3.4960    4.2080    1.2200 oh        1 MOL     -0.930744
    185 H90        -3.2090    3.5120    1.8060 ho        1 MOL      0.454310
    186 H91        -2.6780    4.6240    0.9310 ho        1 MOL      0.454310
    187 O26        -4.9950    6.4020   -0.4110 oh        1 MOL     -0.930744
    188 H92        -4.1970    6.7780   -0.0280 ho        1 MOL      0.454310
    189 H93        -5.2110    7.0070   -1.1290 ho        1 MOL      0.454310
    190 O27        -5.7410    3.2260    3.4690 oh        1 MOL     -0.930744
    191 H94        -6.0240    3.3160    4.3700 ho        1 MOL      0.454310
    192 H95        -5.3140    2.3630    3.4300 ho        1 MOL      0.454310
@<TRIPOS>BOND
     1    1    2 1   
     2    1    4 1   
     3    1    5 1   
     4    1    6 1   
     5    2    3 2   
     6    2    7 1   
     7    7    8 1   
     8    7   15 1   
     9    8    9 1   
    10    8   11 1   
    11    8   16 1   
    12    9   10 2   
    13    9   19 1   
    14   11   12 1   
    15   11   17 1   
    16   11   18 1   
    17   12   13 1   
    18   12   14 1   
    19   19   20 1   
    20   19   28 1   
    21   20   21 1   
    22   20   23 1   
    23   20   29 1   
    24   21   22 2   
    25   21   41 1   
    26   23   24 1   
    27   23   30 1   
    28   23   31 1   
    29   24   25 1   
    30   24   32 1   
    31   24   33 1   
    32   25   26 1   
    33   25   34 1   
    34   25   35 1   
    35   26   27 1   
    36   26   36 1   
    37   26   37 1   
    38   27   38 1   
    39   27   39 1   
    40   27   40 1   
    41   41   42 1   
    42   41   49 1   
    43   42   43 1   
    44   42   45 1   
    45   42   50 1   
    46   43   44 2   
    47   43   53 1   
    48   45   46 1   
    49   45   51 1   
    50   45   52 1   
    51   46   47 1   
    52   46   48 1   
    53   53   54 1   
    54   53   57 1   
    55   54   55 1   
    56   54   58 1   
    57   54   59 1   
    58   55   56 2   
    59   55   60 1   
    60   60   61 1   
    61   60   68 1   
    62   61   62 1   
    63   61   64 1   
    64   61   69 1   
    65   62   63 2   
    66   62   72 1   
    67   64   65 1   
    68   64   70 1   
    69   64   71 1   
    70   65   66 1   
    71   65   67 1   
    72   72   73 1   
    73   72   76 1   
    74   73   74 1   
    75   73   77 1   
    76   73   78 1   
    77   74   75 2   
    78   74   79 1   
    79   79   80 1   
    80   79   86 1   
    81   80   81 1   
    82   80   83 1   
    83   80   87 1   
    84   81   82 2   
    85   81   93 1   
    86   83   84 1   
    87   83   85 1   
    88   83   88 1   
    89   84   90 1   
    90   84   91 1   
    91   84   92 1   
    92   85   89 1   
    93   93   94 1   
    94   93  101 1   
    95   94   95 1   
    96   94   97 1   
    97   94  102 1   
    98   95   96 2   
    99   95  112 1   
   100   97   98 1   
   101   97   99 1   
   102   97  103 1   
   103   98  100 1   
   104   98  104 1   
   105   98  105 1   
   106   99  106 1   
   107   99  107 1   
   108   99  108 1   
   109  100  109 1   
   110  100  110 1   
   111  100  111 1   
   112  112  113 1   
   113  112  119 1   
   114  113  114 1   
   115  113  116 1   
   116  113  120 1   
   117  114  115 2   
   118  114  126 1   
   119  116  117 1   
   120  116  118 1   
   121  116  121 1   
   122  117  123 1   
   123  117  124 1   
   124  117  125 1   
   125  118  122 1   
   126  126  127 1   
   127  126  133 1   
   128  127  128 1   
   129  127  130 1   
   130  127  134 1   
   131  128  129 2   
   132  128  140 1   
   133  130  131 1   
   134  130  132 1   
   135  130  135 1   
   136  131  137 1   
   137  131  138 1   
   138  131  139 1   
   139  132  136 1   
   140  140  141 1   
   141  140  149 1   
   142  141  142 1   
   143  141  144 1   
   144  141  150 1   
   145  142  143 2   
   146  142  162 1   
   147  144  145 1   
   148  144  151 1   
   149  144  152 1   
   150  145  146 1   
   151  145  153 1   
   152  145  154 1   
   153  146  147 1   
   154  146  155 1   
   155  146  156 1   
   156  147  148 1   
   157  147  157 1   
   158  147  158 1   
   159  148  159 1   
   160  148  160 1   
   161  148  161 1   
   162  162  163 1   
   163  162  171 1   
   164  163  164 1   
   165  163  166 1   
   166  163  172 1   
   167  164  165 2   
   168  164  177 1   
   169  166  167 1   
   170  166  173 1   
   171  166  174 1   
   172  167  168 1   
   173  167  175 1   
   174  167  176 1   
   175  168  169 1   
   176  168  170 1   
   177  177  178 1   
   178  177  182 1   
   179  178  179 1   
   180  178  180 1   
   181  178  181 1   
   182  184  185 1   
   183  184  186 1   
   184  187  188 1   
   185  187  189 1   
   186  190  191 1   
   187  190  192 1   
@<TRIPOS>SUBSTRUCTURE
     1 MOL         1 TEMP              0 ****  ****    0 ROOT
