@<TRIPOS>MOLECULE
MOL
  181   177     1     0     0
SMALL
resp


@<TRIPOS>ATOM
      1 C1         -9.5860   -7.1430   -1.8920 c3        1 MOL     -0.473809
      2 C2         -8.8800   -6.2110   -0.8600 c         1 MOL      0.739821
      3 O1         -8.2820   -6.6860    0.0520 o         1 MOL     -0.567232
      4 H1         -9.1630   -6.9730   -2.8820 hc        1 MOL      0.121212
      5 H2         -9.4330   -8.1830   -1.6070 hc        1 MOL      0.121212
      6 H3        -10.6530   -6.9230   -1.9100 hc        1 MOL      0.121212
      7 N1         -9.1270   -4.8880   -0.7750 n         1 MOL     -0.579513
      8 C3         -9.7030   -4.0160   -1.7620 c3        1 MOL     -0.001734
      9 C4        -10.6060   -2.9260   -1.2290 c         1 MOL      0.707852
     10 O2        -10.3480   -2.2830   -0.1960 o         1 MOL     -0.685548
     11 C5         -8.5630   -3.4680   -2.5480 c3        1 MOL      0.022891
     12 C6         -7.3630   -2.8840   -1.6780 c         1 MOL      0.668141
     13 O3         -6.2650   -2.7950   -2.3080 o         1 MOL     -0.666662
     14 O4         -7.5360   -2.5240   -0.5100 o         1 MOL     -0.666662
     15 H4         -9.0070   -4.4670    0.1290 hn        1 MOL      0.368138
     16 H5        -10.3250   -4.6580   -2.3830 h1        1 MOL      0.007162
     17 H6         -8.8920   -2.7590   -3.3020 hc        1 MOL     -0.020100
     18 H7         -8.1780   -4.3320   -3.0950 hc        1 MOL     -0.020100
     19 N2        -11.6610   -2.6440   -1.9960 n         1 MOL     -0.668403
     20 C7        -12.8590   -1.8290   -1.6370 c3        1 MOL      0.239266
     21 C8        -12.7120   -0.3200   -1.6650 c         1 MOL      0.391657
     22 O5        -13.6800    0.4790   -1.8320 o         1 MOL     -0.527799
     23 C9        -13.4270   -2.3900   -0.2610 c3        1 MOL     -0.370739
     24 H8        -11.8010   -3.3290   -2.7260 hn        1 MOL      0.340403
     25 H9        -13.6360   -1.9180   -2.3930 h1        1 MOL      0.034980
     26 H10       -14.2440   -1.6900   -0.0850 hc        1 MOL      0.114380
     27 H11       -13.8420   -3.4000   -0.2860 hc        1 MOL      0.114380
     28 H12       -12.7860   -2.2690    0.6040 hc        1 MOL      0.114380
     29 N3        -11.4530    0.1060   -1.4630 n         1 MOL     -0.133047
     30 C10       -10.9110    1.4810   -1.3850 c3        1 MOL     -0.356472
     31 C11        -9.3780    1.3990   -1.5360 c         1 MOL      0.559441
     32 O6         -8.7870    0.4260   -1.0450 o         1 MOL     -0.543610
     33 C12       -11.3280    2.2470   -0.0880 c3        1 MOL      0.176411
     34 C13       -11.2740    1.5420    1.2920 c         1 MOL      0.588294
     35 O7        -12.2530    1.5840    2.0500 o         1 MOL     -0.672305
     36 O8        -10.1970    0.9460    1.6940 o         1 MOL     -0.672305
     37 H13       -10.7520   -0.5950   -1.2890 hn        1 MOL      0.211179
     38 H14       -11.2760    1.9440   -2.2940 h1        1 MOL      0.111890
     39 H15       -12.3570    2.5630   -0.2490 hc        1 MOL     -0.007310
     40 H16       -10.8970    3.2370    0.0120 hc        1 MOL     -0.007310
     41 N4         -8.7570    2.3520   -2.2440 n         1 MOL     -0.309183
     42 C14        -7.3130    2.3270   -2.4460 c3        1 MOL     -0.450291
     43 C15        -6.5990    2.7210   -1.1080 c         1 MOL      0.776179
     44 O9         -7.2920    3.3390   -0.2930 o         1 MOL     -0.550620
     45 H17        -9.2670    3.1740   -2.5400 hn        1 MOL      0.299715
     46 H18        -7.0770    3.1820   -3.0730 h1        1 MOL      0.196737
     47 H19        -6.9880    1.3440   -2.7600 h1        1 MOL      0.196737
     48 N5         -5.3150    2.4130   -0.9650 n         1 MOL     -0.760721
     49 C16        -4.5050    2.8630    0.2000 c3        1 MOL      0.443851
     50 C17        -3.0890    3.1710   -0.1690 c         1 MOL      0.467191
     51 O10        -2.6930    3.0130   -1.3170 o         1 MOL     -0.508096
     52 C18        -4.5450    1.8240    1.3590 c3        1 MOL     -0.383724
     53 C19        -5.8990    1.7250    1.9840 c         1 MOL      0.808122
     54 N6         -6.0730    2.4710    2.9740 n         1 MOL     -0.758054
     55 O11        -6.7420    0.9100    1.6450 o         1 MOL     -0.781353
     56 H20        -4.8820    1.8280   -1.6560 hn        1 MOL      0.376812
     57 H21        -4.9080    3.7900    0.6190 h1        1 MOL     -0.045448
     58 H22        -3.8050    2.0880    2.1070 hc        1 MOL      0.120528
     59 H23        -4.2460    0.8240    1.0250 hc        1 MOL      0.120528
     60 H24        -5.3580    3.1350    3.2230 hn        1 MOL      0.370246
     61 H25        -6.9950    2.5200    3.3830 hn        1 MOL      0.370246
     62 N7         -2.2310    3.6970    0.7320 n         1 MOL     -0.401815
     63 C20        -0.8450    4.1690    0.3930 c3        1 MOL     -0.096957
     64 C21         0.2190    4.5790    1.4430 c         1 MOL      0.602748
     65 O12        -0.0440    4.4740    2.6500 o         1 MOL     -0.567897
     66 H26        -2.5560    3.9130    1.6690 hn        1 MOL      0.230558
     67 H27        -0.9540    4.9800   -0.3350 h1        1 MOL      0.125796
     68 H28        -0.3920    3.2570   -0.0010 h1        1 MOL      0.125796
     69 N8          1.4040    5.0400    1.0460 n         1 MOL     -0.433112
     70 C22         1.7500    5.5290   -0.3160 c3        1 MOL     -0.115605
     71 C23         3.0820    4.9570   -0.8240 c         1 MOL      0.499963
     72 O13         3.4310    5.0720   -2.0350 o         1 MOL     -0.577433
     73 C24         1.7790    7.0460   -0.3390 c3        1 MOL      0.533964
     74 C25         0.5280    7.7030    0.2090 c3        1 MOL     -0.249175
     75 O14         2.8970    7.4360    0.4630 oh        1 MOL     -0.617386
     76 H29         2.1350    4.9970    1.7430 hn        1 MOL      0.307059
     77 H30         0.9610    5.2970   -1.0230 h1        1 MOL      0.081666
     78 H31         1.8890    7.3940   -1.3640 h1        1 MOL     -0.059294
     79 H32         3.5170    7.6490   -0.2370 ho        1 MOL      0.347142
     80 H33         0.6680    8.7850    0.2350 hc        1 MOL      0.041835
     81 H34        -0.2150    7.5070   -0.5620 hc        1 MOL      0.041835
     82 H35         0.2420    7.2970    1.1800 hc        1 MOL      0.041835
     83 N9          3.7740    4.2600    0.0490 n         1 MOL     -0.280972
     84 C26         5.0480    3.6100   -0.2050 c3        1 MOL     -0.055595
     85 C27         5.1390    2.3370    0.6530 c         1 MOL      0.480478
     86 O15         4.8410    2.4190    1.8230 o         1 MOL     -0.535764
     87 C28         6.2030    4.6410    0.0460 c3        1 MOL      0.093541
     88 C29         7.5350    4.1330   -0.2550 c3        1 MOL      0.067222
     89 C30         6.0980    5.3230    1.4580 c3        1 MOL     -0.160184
     90 C31         7.9820    3.8520   -1.6680 c3        1 MOL     -0.213564
     91 H36         3.4010    4.0970    0.9780 hn        1 MOL      0.224594
     92 H37         5.1300    3.4520   -1.2790 h1        1 MOL      0.099026
     93 H38         6.0910    5.4820   -0.6410 hc        1 MOL     -0.005287
     94 H39         7.6980    3.2290    0.3520 hc        1 MOL     -0.025714
     95 H40         8.2250    4.8970    0.1010 hc        1 MOL     -0.025714
     96 H41         6.9170    6.0350    1.5950 hc        1 MOL      0.030868
     97 H42         5.2180    5.9140    1.7130 hc        1 MOL      0.030868
     98 H43         6.2790    4.5750    2.2410 hc        1 MOL      0.030868
     99 H44         7.9670    4.7520   -2.2840 hc        1 MOL      0.045241
    100 H45         8.9760    3.4280   -1.5190 hc        1 MOL      0.045241
    101 H46         7.4480    3.0380   -2.1530 hc        1 MOL      0.045241
    102 N10         5.5710    1.2030    0.1920 n         1 MOL     -0.187305
    103 C32         5.8970    0.7680   -1.1970 c3        1 MOL      0.043418
    104 C33         7.2640    0.0820   -1.3530 c         1 MOL      0.451077
    105 O16         7.5410   -0.4590   -2.4020 o         1 MOL     -0.548117
    106 C34         4.7560   -0.0890   -1.7940 c3        1 MOL     -0.128476
    107 C35         3.3340    0.3020   -1.5600 c         1 MOL      0.691031
    108 O17         3.0240    1.4910   -1.4560 o         1 MOL     -0.694771
    109 O18         2.4260   -0.5650   -1.5300 o         1 MOL     -0.694771
    110 H47         5.4400    0.4510    0.8460 hn        1 MOL      0.256167
    111 H48         5.8530    1.6820   -1.7930 h1        1 MOL      0.069904
    112 H49         4.8480   -1.1230   -1.4730 hc        1 MOL      0.017248
    113 H50         4.8990   -0.1930   -2.8650 hc        1 MOL      0.017248
    114 N11         8.2020    0.1640   -0.4210 n         1 MOL     -0.440318
    115 C36         9.5360   -0.3470   -0.4910 c3        1 MOL      0.468455
    116 C37        10.2270   -0.5850    0.8900 c         1 MOL      0.212849
    117 O19         9.7410    0.1400    1.7670 o         1 MOL     -0.480029
    118 C38        10.4220    0.6760   -1.3070 c3        1 MOL      0.063195
    119 C39        11.6230    0.1070   -2.0950 ca        1 MOL     -0.118203
    120 C40        12.9980    0.2120   -1.6670 ca        1 MOL     -0.070423
    121 C41        11.3680   -0.7170   -3.1780 ca        1 MOL     -0.070423
    122 C42        14.0350   -0.5420   -2.2820 ca        1 MOL     -0.164680
    123 C43        12.3500   -1.5910   -3.7100 ca        1 MOL     -0.164680
    124 C44        13.6570   -1.4100   -3.3530 ca        1 MOL     -0.088329
    125 H51         7.9160    0.7580    0.3490 hn        1 MOL      0.216410
    126 H52         9.5910   -1.2550   -1.0890 h1        1 MOL     -0.011526
    127 H53        10.7690    1.4930   -0.6780 hc        1 MOL      0.003138
    128 H54         9.7980    1.1730   -2.0600 hc        1 MOL      0.003138
    129 H55        13.1860    0.8400   -0.8140 ha        1 MOL      0.095901
    130 H56        10.3370   -0.8360   -3.4790 ha        1 MOL      0.095901
    131 H57        15.0740   -0.4800   -1.9780 ha        1 MOL      0.118598
    132 H58        12.1220   -2.3260   -4.4570 ha        1 MOL      0.118598
    133 H59        14.3510   -2.0420   -3.8770 ha        1 MOL      0.085813
    134 N12        11.1590   -1.5000    1.1270 n         1 MOL     -0.013088
    135 C45        11.4550   -2.6910    0.3190 c3        1 MOL      0.092247
    136 C46        10.2470   -3.5600    0.0380 c         1 MOL      0.432135
    137 O20        10.1170   -4.0920   -1.0850 o         1 MOL     -0.527588
    138 C47        12.5960   -3.3750    1.0430 c3        1 MOL     -0.275545
    139 C48        13.2540   -2.2520    1.8200 c3        1 MOL      0.239626
    140 C49        12.1350   -1.3700    2.2030 c3        1 MOL     -0.336596
    141 H60        11.8750   -2.3860   -0.6430 h1        1 MOL      0.061427
    142 H61        12.2540   -4.0570    1.8220 hc        1 MOL      0.084602
    143 H62        13.2780   -3.8340    0.3260 hc        1 MOL      0.084602
    144 H63        13.8360   -2.6180    2.6700 hc        1 MOL     -0.044019
    145 H64        13.9190   -1.6950    1.1530 hc        1 MOL     -0.044019
    146 H65        11.7740   -1.7190    3.1720 h1        1 MOL      0.127232
    147 H66        12.5330   -0.3590    2.3260 h1        1 MOL      0.127232
    148 N13         9.3850   -3.6710    1.0470 n         1 MOL     -0.456161
    149 C50         8.1220   -4.4730    1.0490 c3        1 MOL      0.205789
    150 C51         8.3340   -5.9420    1.3960 c         1 MOL      0.398574
    151 O21         8.2900   -6.2660    2.6040 o         1 MOL     -0.551615
    152 C52         7.1420   -3.8700    2.0770 c3        1 MOL     -0.111686
    153 C53         6.7760   -2.4230    1.6070 c3        1 MOL     -0.194309
    154 C54         5.8990   -1.6420    2.5250 c         1 MOL      0.714928
    155 O22         4.9630   -2.2320    3.1010 o         1 MOL     -0.710207
    156 O23         6.0920   -0.4000    2.6050 o         1 MOL     -0.710207
    157 H67         9.5770   -3.1980    1.9090 hn        1 MOL      0.312978
    158 H68         7.6890   -4.3790    0.0530 h1        1 MOL      0.080744
    159 H69         7.5650   -3.8160    3.0730 hc        1 MOL      0.057718
    160 H70         6.2450   -4.5020    2.1260 hc        1 MOL      0.057718
    161 H71         6.3580   -2.4450    0.5970 hc        1 MOL      0.032593
    162 H72         7.6660   -1.8080    1.4700 hc        1 MOL      0.032593
    163 N14         8.2910   -6.9370    0.4560 n         1 MOL     -0.363906
    164 C55         8.4280   -6.7490   -1.0200 c3        1 MOL     -0.154062
    165 H73         7.7980   -5.9190   -1.3400 h1        1 MOL      0.086545
    166 H74         9.4680   -6.5300   -1.2640 h1        1 MOL      0.086545
    167 H75         8.1170   -7.6590   -1.5330 h1        1 MOL      0.086545
    168 H76         8.1180   -7.8760    0.7930 hn        1 MOL      0.274606
    169 Ca1        -8.5420   -1.0620    1.3810 Ca        1 MOL      1.770583
    170 O24        -7.9140   -3.6520    2.7530 oh        1 MOL     -0.809777
    171 H77        -7.9870   -3.5250    3.7000 ho        1 MOL      0.391694
    172 H78        -6.9810   -3.8420    2.6080 ho        1 MOL      0.391694
    173 O25        -8.1500   -1.0400    3.9920 oh        1 MOL     -0.809777
    174 H79        -7.8570   -0.3190    4.5530 ho        1 MOL      0.391694
    175 H80        -8.2200   -1.7840    4.5830 ho        1 MOL      0.391694
    176 O26        -5.6150   -1.8580    1.9060 oh        1 MOL     -0.809777
    177 H81        -5.1420   -1.0710    1.6250 ho        1 MOL      0.391694
    178 H82        -4.9340   -2.4420    2.2430 ho        1 MOL      0.391694
    179 O27       -10.6970   -1.5950    2.8190 oh        1 MOL     -0.809777
    180 H83       -11.0020   -0.7550    3.1640 ho        1 MOL      0.391694
    181 H84       -11.2840   -2.2430    3.2040 ho        1 MOL      0.391694
@<TRIPOS>BOND
     1    1    2 1   
     2    1    4 1   
     3    1    5 1   
     4    1    6 1   
     5    2    3 2   
     6    2    7 1   
     7    7    8 1   
     8    7   15 1   
     9    8    9 1   
    10    8   11 1   
    11    8   16 1   
    12    9   10 2   
    13    9   19 1   
    14   11   12 1   
    15   11   17 1   
    16   11   18 1   
    17   12   13 1   
    18   12   14 1   
    19   19   20 1   
    20   19   24 1   
    21   20   21 1   
    22   20   23 1   
    23   20   25 1   
    24   21   22 2   
    25   21   29 1   
    26   23   26 1   
    27   23   27 1   
    28   23   28 1   
    29   29   30 1   
    30   29   37 1   
    31   30   31 1   
    32   30   33 1   
    33   30   38 1   
    34   31   32 2   
    35   31   41 1   
    36   33   34 1   
    37   33   39 1   
    38   33   40 1   
    39   34   35 1   
    40   34   36 1   
    41   41   42 1   
    42   41   45 1   
    43   42   43 1   
    44   42   46 1   
    45   42   47 1   
    46   43   44 2   
    47   43   48 1   
    48   48   49 1   
    49   48   56 1   
    50   49   50 1   
    51   49   52 1   
    52   49   57 1   
    53   50   51 2   
    54   50   62 1   
    55   52   53 1   
    56   52   58 1   
    57   52   59 1   
    58   53   54 1   
    59   53   55 2   
    60   54   60 1   
    61   54   61 1   
    62   62   63 1   
    63   62   66 1   
    64   63   64 1   
    65   63   67 1   
    66   63   68 1   
    67   64   65 2   
    68   64   69 1   
    69   69   70 1   
    70   69   76 1   
    71   70   71 1   
    72   70   73 1   
    73   70   77 1   
    74   71   72 2   
    75   71   83 1   
    76   73   74 1   
    77   73   75 1   
    78   73   78 1   
    79   74   80 1   
    80   74   81 1   
    81   74   82 1   
    82   75   79 1   
    83   83   84 1   
    84   83   91 1   
    85   84   85 1   
    86   84   87 1   
    87   84   92 1   
    88   85   86 2   
    89   85  102 1   
    90   87   88 1   
    91   87   89 1   
    92   87   93 1   
    93   88   90 1   
    94   88   94 1   
    95   88   95 1   
    96   89   96 1   
    97   89   97 1   
    98   89   98 1   
    99   90   99 1   
   100   90  100 1   
   101   90  101 1   
   102  102  103 1   
   103  102  110 1   
   104  103  104 1   
   105  103  106 1   
   106  103  111 1   
   107  104  105 2   
   108  104  114 1   
   109  106  107 1   
   110  106  112 1   
   111  106  113 1   
   112  107  108 1   
   113  107  109 1   
   114  114  115 1   
   115  114  125 1   
   116  115  116 1   
   117  115  118 1   
   118  115  126 1   
   119  116  117 2   
   120  116  134 1   
   121  118  119 1   
   122  118  127 1   
   123  118  128 1   
   124  119  120 ar  
   125  119  121 ar  
   126  120  122 ar  
   127  120  129 1   
   128  121  123 ar  
   129  121  130 1   
   130  122  124 ar  
   131  122  131 1   
   132  123  124 ar  
   133  123  132 1   
   134  124  133 1   
   135  134  135 1   
   136  134  140 1   
   137  135  136 1   
   138  135  138 1   
   139  135  141 1   
   140  136  137 2   
   141  136  148 1   
   142  138  139 1   
   143  138  142 1   
   144  138  143 1   
   145  139  140 1   
   146  139  144 1   
   147  139  145 1   
   148  140  146 1   
   149  140  147 1   
   150  148  149 1   
   151  148  157 1   
   152  149  150 1   
   153  149  152 1   
   154  149  158 1   
   155  150  151 2   
   156  150  163 1   
   157  152  153 1   
   158  152  159 1   
   159  152  160 1   
   160  153  154 1   
   161  153  161 1   
   162  153  162 1   
   163  154  155 1   
   164  154  156 1   
   165  163  164 1   
   166  163  168 1   
   167  164  165 1   
   168  164  166 1   
   169  164  167 1   
   170  170  171 1   
   171  170  172 1   
   172  173  174 1   
   173  173  175 1   
   174  176  177 1   
   175  176  178 1   
   176  179  180 1   
   177  179  181 1   
@<TRIPOS>SUBSTRUCTURE
     1 MOL         1 TEMP              0 ****  ****    0 ROOT
