@<TRIPOS>MOLECULE
MOL
  201   193     1     0     0
SMALL
resp


@<TRIPOS>ATOM
      1 C1          2.5340   -4.1800    0.1410 c3        1 MOL     -0.009346
      2 C2          1.4770   -3.0670    0.1850 c         1 MOL      0.680540
      3 O1          1.8160   -1.9190   -0.0750 o         1 MOL     -0.685743
      4 H1          2.2360   -4.9340   -0.5880 hc        1 MOL     -0.019360
      5 H2          3.4960   -3.7570   -0.1470 hc        1 MOL     -0.019360
      6 H3          2.6180   -4.6410    1.1250 hc        1 MOL     -0.019360
      7 N1          0.2120   -3.2660    0.3550 n         1 MOL     -0.215084
      8 C3         -0.5210   -4.3980    0.8680 c3        1 MOL     -0.215214
      9 C4         -1.2620   -5.2390   -0.2290 c         1 MOL      0.457950
     10 O2         -1.7180   -6.3730    0.1000 o         1 MOL     -0.561946
     11 C5         -1.4950   -3.8290    1.9450 c3        1 MOL     -0.081310
     12 C6         -0.6810   -3.1690    2.9970 c         1 MOL      0.670216
     13 O3         -0.7220   -1.8710    3.1950 o         1 MOL     -0.665502
     14 O4         -0.1100   -3.9300    3.7710 o         1 MOL     -0.665502
     15 H4         -0.4070   -2.4770    0.1910 hn        1 MOL      0.167334
     16 H5          0.1800   -5.0810    1.3520 h1        1 MOL      0.120256
     17 H6         -2.0380   -4.6350    2.4350 hc        1 MOL      0.051519
     18 H7         -2.2130   -3.1100    1.5560 hc        1 MOL      0.051519
     19 N2         -1.3630   -4.8220   -1.4560 n         1 MOL     -0.120300
     20 C7         -2.0800   -5.5700   -2.5030 c3        1 MOL     -0.273158
     21 C8         -3.5940   -5.7330   -2.2270 c         1 MOL      0.363382
     22 O5         -4.2290   -6.7120   -2.5980 o         1 MOL     -0.559440
     23 C9         -1.9640   -4.9530   -3.9710 c3        1 MOL      0.124391
     24 C10        -2.4660   -3.5150   -4.0880 c3        1 MOL      0.218767
     25 C11        -0.5140   -5.1050   -4.3490 c3        1 MOL     -0.260034
     26 C12        -2.7100   -3.0250   -5.5230 c3        1 MOL     -0.312684
     27 H8         -1.0060   -3.9250   -1.7660 hn        1 MOL      0.062732
     28 H9         -1.6340   -6.5570   -2.4630 h1        1 MOL      0.151564
     29 H10        -2.5750   -5.5080   -4.6790 hc        1 MOL      0.017949
     30 H11        -1.8010   -2.8860   -3.4950 hc        1 MOL     -0.015032
     31 H12        -3.4230   -3.4050   -3.5870 hc        1 MOL     -0.015032
     32 H13        -0.2540   -4.8480   -5.3710 hc        1 MOL      0.054592
     33 H14         0.0630   -4.3800   -3.7820 hc        1 MOL      0.054592
     34 H15        -0.1720   -6.1290   -4.1480 hc        1 MOL      0.054592
     35 H16        -3.2800   -2.1050   -5.4120 hc        1 MOL      0.062447
     36 H17        -1.8360   -2.8350   -6.1480 hc        1 MOL      0.062447
     37 H18        -3.3760   -3.7220   -6.0320 hc        1 MOL      0.062447
     38 N3         -4.1360   -4.8320   -1.4660 n         1 MOL      0.095055
     39 C13        -5.5220   -4.7240   -1.0240 c3        1 MOL     -0.152750
     40 C14        -5.5150   -3.9180    0.2740 c         1 MOL      0.275357
     41 O6         -4.7870   -2.9470    0.3680 o         1 MOL     -0.435581
     42 C15        -6.3690   -4.0290   -2.1050 c3        1 MOL     -0.165150
     43 C16        -7.8760   -4.0870   -1.9180 c         1 MOL      0.700986
     44 O7         -8.3660   -4.8190   -0.9790 o         1 MOL     -0.636746
     45 O8         -8.5630   -3.4330   -2.6380 o         1 MOL     -0.636746
     46 H19        -3.5490   -4.0800   -1.1480 hn        1 MOL      0.128516
     47 H20        -5.9020   -5.7340   -0.8570 h1        1 MOL      0.081924
     48 H21        -6.1070   -4.5380   -3.0310 hc        1 MOL      0.050483
     49 H22        -5.9670   -3.0190   -2.1120 hc        1 MOL      0.050483
     50 N4         -6.4160   -4.2190    1.2210 n         1 MOL     -0.184600
     51 C17        -6.4770   -3.5040    2.4720 c3        1 MOL     -0.201944
     52 C18        -7.1320   -2.1400    2.3740 c         1 MOL      0.597400
     53 O9         -7.1180   -1.4180    3.3310 o         1 MOL     -0.589616
     54 H23        -7.0110   -5.0260    1.1190 hn        1 MOL      0.250635
     55 H24        -5.4480   -3.3480    2.8030 h1        1 MOL      0.103653
     56 H25        -7.0370   -4.0860    3.2100 h1        1 MOL      0.103653
     57 N5         -7.5910   -1.7350    1.1620 n         1 MOL     -0.359729
     58 C19        -7.9650   -0.3570    0.8500 c3        1 MOL      0.372271
     59 C20        -7.1260    0.1730   -0.3590 c         1 MOL      0.234031
     60 O10        -6.8920   -0.5100   -1.4140 o         1 MOL     -0.476756
     61 C21        -9.4650   -0.2090    0.5160 c3        1 MOL     -0.326189
     62 C22       -10.2720   -1.1870    1.3620 c         1 MOL      0.693457
     63 O11       -10.5030   -2.3720    0.9480 o         1 MOL     -0.626799
     64 O12       -10.7710   -0.8100    2.4550 o         1 MOL     -0.626799
     65 H26        -7.4580   -2.3700    0.3890 hn        1 MOL      0.305762
     66 H27        -7.7830    0.3140    1.6930 h1        1 MOL     -0.038701
     67 H28        -9.5890   -0.5510   -0.5140 hc        1 MOL      0.078069
     68 H29        -9.9030    0.7810    0.6380 hc        1 MOL      0.078069
     69 N6         -6.7550    1.4170   -0.3190 n         1 MOL     -0.341703
     70 C23        -6.8840    2.4210    0.8680 c3        1 MOL      0.006898
     71 C24        -6.7600    3.8920    0.3510 c         1 MOL      0.526302
     72 O13        -6.8600    4.1170   -0.8480 o         1 MOL     -0.534489
     73 H30        -6.4430    1.7490   -1.2130 hn        1 MOL      0.300222
     74 H31        -6.1540    2.2440    1.6490 h1        1 MOL      0.093852
     75 H32        -7.9010    2.3520    1.2510 h1        1 MOL      0.093852
     76 N7         -6.3210    4.8160    1.1890 n         1 MOL     -0.615127
     77 C25        -5.7470    4.6120    2.5490 c3        1 MOL      0.211843
     78 C26        -4.3850    3.8160    2.4350 c         1 MOL      0.295531
     79 O14        -4.1380    2.9220    3.2500 o         1 MOL     -0.458234
     80 C27        -6.8520    4.1580    3.5080 c3        1 MOL     -0.089367
     81 C28        -6.4110    4.3110    4.9750 c3        1 MOL     -0.298817
     82 C29        -7.4140    3.5440    5.8140 c         1 MOL      0.685268
     83 N8         -7.1780    2.2980    6.0560 n         1 MOL     -0.745051
     84 O15        -8.4320    3.9990    6.4270 o         1 MOL     -0.620463
     85 H33        -6.1430    5.7190    0.7880 hn        1 MOL      0.326737
     86 H34        -5.4480    5.6280    2.8000 h1        1 MOL      0.045119
     87 H35        -7.1880    3.1250    3.4190 hc        1 MOL      0.063752
     88 H36        -7.6990    4.7980    3.2580 hc        1 MOL      0.063752
     89 H37        -6.4410    5.3720    5.2460 hc        1 MOL      0.086956
     90 H38        -5.3820    3.9700    5.0390 hc        1 MOL      0.086956
     91 H39        -6.4880    1.7900    5.5330 hn        1 MOL      0.370288
     92 H40        -7.8900    1.8080    6.5890 hn        1 MOL      0.370288
     93 N9         -3.5620    4.0960    1.3790 n         1 MOL     -0.232996
     94 C30        -2.3230    3.2830    0.9670 c3        1 MOL      0.034660
     95 C31        -2.3830    2.8070   -0.4940 c         1 MOL      0.424341
     96 O16        -3.0810    3.3920   -1.3120 o         1 MOL     -0.503156
     97 C32        -0.9830    4.0040    1.2250 c3        1 MOL      0.145202
     98 C33        -0.8860    4.5190    2.6890 c3        1 MOL     -0.214062
     99 C34        -0.7420    5.2750    0.2880 c3        1 MOL     -0.214062
    100 H41        -3.7450    4.8990    0.8030 hn        1 MOL      0.227182
    101 H42        -2.3070    2.4340    1.6370 h1        1 MOL      0.090649
    102 H43        -0.2370    3.2290    1.0620 hc        1 MOL      0.033535
    103 H44         0.1320    4.8890    2.8020 hc        1 MOL      0.053671
    104 H45        -1.5570    5.3680    2.8160 hc        1 MOL      0.053671
    105 H46        -0.9880    3.6880    3.3960 hc        1 MOL      0.053671
    106 H47        -1.5480    5.9620    0.5750 hc        1 MOL      0.053671
    107 H48         0.2650    5.5970    0.5480 hc        1 MOL      0.053671
    108 H49        -0.8530    4.9520   -0.7500 hc        1 MOL      0.053671
    109 N10        -1.7590    1.6550   -0.8440 n         1 MOL     -0.427535
    110 C35        -1.6270    1.1710   -2.2440 c3        1 MOL      0.100348
    111 C36        -0.4580    1.7940   -3.0870 c         1 MOL      0.376481
    112 O17        -0.3920    1.5670   -4.3140 o         1 MOL     -0.525764
    113 C37        -1.4180   -0.3510   -2.1830 c3        1 MOL     -0.068346
    114 C38        -2.4770   -1.1150   -1.4010 c         1 MOL      0.388878
    115 N11        -3.7240   -0.7100   -1.2860 n         1 MOL     -0.646357
    116 O18        -2.1320   -2.1240   -0.8760 o         1 MOL     -0.296575
    117 H50        -1.3160    1.1700   -0.0830 hn        1 MOL      0.298403
    118 H51        -2.5110    1.4170   -2.8390 h1        1 MOL      0.080910
    119 H52        -0.4400   -0.4900   -1.7310 hc        1 MOL      0.054571
    120 H53        -1.4390   -0.7240   -3.2000 hc        1 MOL      0.054571
    121 H54        -4.0150    0.1120   -1.7950 hn        1 MOL      0.317730
    122 H55        -4.3820   -1.2440   -0.7400 hn        1 MOL      0.317730
    123 N12         0.5490    2.4440   -2.4580 n         1 MOL     -0.170768
    124 C39         1.8710    2.8080   -2.9940 c3        1 MOL     -0.121061
    125 C40         2.8990    2.8630   -1.8290 c         1 MOL      0.635036
    126 O19         2.5660    3.2640   -0.7500 o         1 MOL     -0.483669
    127 C41         1.8110    4.0140   -3.9040 c3        1 MOL      0.093128
    128 C42         1.2580    5.2240   -3.3290 ca        1 MOL      0.041779
    129 C43         2.0410    6.1670   -2.5970 ca        1 MOL     -0.178178
    130 C44        -0.1080    5.5090   -3.5640 ca        1 MOL     -0.178178
    131 C45         1.5170    7.3880   -2.1730 ca        1 MOL     -0.231303
    132 C46        -0.6160    6.7420   -3.0900 ca        1 MOL     -0.231303
    133 C47         0.1460    7.7070   -2.4240 ca        1 MOL      0.269904
    134 O20        -0.3970    8.8490   -2.0590 oh        1 MOL     -0.438299
    135 H56         0.4460    2.5400   -1.4550 hn        1 MOL      0.153632
    136 H57         2.2680    1.9830   -3.5790 h1        1 MOL      0.096573
    137 H58         1.4130    3.6440   -4.8430 hc        1 MOL     -0.004052
    138 H59         2.8150    4.2050   -4.2530 hc        1 MOL     -0.004052
    139 H60         3.1100    6.0490   -2.4900 ha        1 MOL      0.145685
    140 H61        -0.7780    4.8200   -4.0630 ha        1 MOL      0.145685
    141 H62         2.2010    8.0220   -1.6310 ha        1 MOL      0.145675
    142 H63        -1.6560    6.9640   -3.2970 ha        1 MOL      0.145675
    143 H64        -1.2750    8.9160   -2.4520 ho        1 MOL      0.324889
    144 N13         4.1690    2.5050   -2.0500 n         1 MOL     -0.559276
    145 C48         5.2600    2.6870   -1.1150 c3        1 MOL     -0.019836
    146 C49         6.2550    1.5890   -1.1550 c         1 MOL      0.631890
    147 O21         7.1210    1.6320   -2.0380 o         1 MOL     -0.479859
    148 C50         5.9120    4.1110   -1.3500 c3        1 MOL      0.138002
    149 C51         6.8200    4.5200   -0.0980 c3        1 MOL     -0.525682
    150 C52         7.3630    5.8450   -0.3090 c         1 MOL      0.894110
    151 O22         8.3880    6.1970    0.2860 o         1 MOL     -0.748546
    152 O23         6.8170    6.6720   -1.0770 o         1 MOL     -0.748546
    153 H65         4.4400    2.1890   -2.9750 hn        1 MOL      0.301931
    154 H66         4.8740    2.7270   -0.0950 h1        1 MOL      0.083059
    155 H67         5.0630    4.8020   -1.4130 hc        1 MOL     -0.003472
    156 H68         6.4490    4.1980   -2.2930 hc        1 MOL     -0.003472
    157 H69         7.5940    3.7550   -0.0800 hc        1 MOL      0.132127
    158 H70         6.1800    4.5370    0.7900 hc        1 MOL      0.132127
    159 N14         5.9910    0.4890   -0.4090 n         1 MOL     -0.594591
    160 C53         6.4140   -0.8700   -0.7420 c3        1 MOL     -0.429900
    161 C54         5.8300   -1.3810   -2.1010 c         1 MOL      0.363693
    162 O24         6.0920   -2.5360   -2.5250 o         1 MOL     -0.499009
    163 C55         5.8580   -1.8670    0.2910 c3        1 MOL      0.313557
    164 C56         6.5500   -1.6580    1.6310 c3        1 MOL     -1.280874
    165 C57         8.0840   -1.6840    1.5040 c         1 MOL      1.038662
    166 O25         8.7500   -0.6710    1.3940 o         1 MOL     -0.674762
    167 O26         8.5880   -2.8420    1.6120 o         1 MOL     -0.674762
    168 H71         5.2870    0.5990    0.3020 hn        1 MOL      0.356238
    169 H72         7.4940   -0.9150   -0.8900 h1        1 MOL      0.353719
    170 H73         5.9880   -2.9280    0.0450 hc        1 MOL      0.062982
    171 H74         4.7870   -1.7210    0.3790 hc        1 MOL      0.062982
    172 H75         6.1940   -2.4640    2.2630 hc        1 MOL      0.328100
    173 H76         6.2060   -0.7810    2.1790 hc        1 MOL      0.328100
    174 N15         5.0190   -0.5560   -2.6960 n         1 MOL     -0.087817
    175 C58         4.3930   -0.9060   -3.9940 c3        1 MOL     -0.262781
    176 H77         3.9920   -1.9190   -3.9420 h1        1 MOL      0.103682
    177 H78         3.5860   -0.2060   -4.2100 h1        1 MOL      0.103682
    178 H79         5.1410   -0.8540   -4.7850 h1        1 MOL      0.103682
    179 H80         4.9080    0.3930   -2.3720 hn        1 MOL      0.157564
    180 Ca1        11.0310   -2.1250    2.2500 Ca        1 MOL      1.812030
    181 O27        12.0600    0.2560    3.3840 oh        1 MOL     -0.837175
    182 O28        10.8480   -4.7050    2.8770 oh        1 MOL     -0.837175
    183 H81        11.7740    1.1350    3.1340 ho        1 MOL      0.351031
    184 H82        11.1010   -5.6040    2.6740 ho        1 MOL      0.351031
    185 H83        12.5740    0.3770    4.1790 ho        1 MOL      0.351031
    186 H84        10.5980   -4.7450    3.8010 ho        1 MOL      0.351031
    187 O29         9.4440   -1.4790    4.2730 oh        1 MOL     -0.837175
    188 H85         9.6290   -0.6210    4.6520 ho        1 MOL      0.351031
    189 H86         8.6200   -1.7490    4.6750 ho        1 MOL      0.351031
    190 O30        10.8620   -3.2830   -0.2180 oh        1 MOL     -0.837175
    191 H87        11.2960   -4.0240   -0.6440 ho        1 MOL      0.351031
    192 H88        10.1570   -3.0420   -0.8120 ho        1 MOL      0.351031
    193 O31        12.2440   -2.9060    4.5730 oh        1 MOL     -0.837175
    194 H89        11.9500   -2.3490    5.2840 ho        1 MOL      0.351031
    195 H90        12.6720   -3.6420    5.0040 ho        1 MOL      0.351031
    196 O32        11.5550   -0.3870    0.3850 oh        1 MOL     -0.837175
    197 H91        10.9240    0.2620    0.0650 ho        1 MOL      0.351031
    198 H92        11.9390   -0.7570   -0.4100 ho        1 MOL      0.351031
    199 O33        13.5390   -2.6560    1.9000 oh        1 MOL     -0.837175
    200 H93        14.0390   -3.0740    2.6050 ho        1 MOL      0.351031
    201 H94        14.0120   -2.9070    1.1030 ho        1 MOL      0.351031
@<TRIPOS>BOND
     1    1    2 1   
     2    1    4 1   
     3    1    5 1   
     4    1    6 1   
     5    2    3 2   
     6    2    7 1   
     7    7    8 1   
     8    7   15 1   
     9    8    9 1   
    10    8   11 1   
    11    8   16 1   
    12    9   10 2   
    13    9   19 1   
    14   11   12 1   
    15   11   17 1   
    16   11   18 1   
    17   12   13 1   
    18   12   14 1   
    19   19   20 1   
    20   19   27 1   
    21   20   21 1   
    22   20   23 1   
    23   20   28 1   
    24   21   22 2   
    25   21   38 1   
    26   23   24 1   
    27   23   25 1   
    28   23   29 1   
    29   24   26 1   
    30   24   30 1   
    31   24   31 1   
    32   25   32 1   
    33   25   33 1   
    34   25   34 1   
    35   26   35 1   
    36   26   36 1   
    37   26   37 1   
    38   38   39 1   
    39   38   46 1   
    40   39   40 1   
    41   39   42 1   
    42   39   47 1   
    43   40   41 2   
    44   40   50 1   
    45   42   43 1   
    46   42   48 1   
    47   42   49 1   
    48   43   44 1   
    49   43   45 1   
    50   50   51 1   
    51   50   54 1   
    52   51   52 1   
    53   51   55 1   
    54   51   56 1   
    55   52   53 2   
    56   52   57 1   
    57   57   58 1   
    58   57   65 1   
    59   58   59 1   
    60   58   61 1   
    61   58   66 1   
    62   59   60 2   
    63   59   69 1   
    64   61   62 1   
    65   61   67 1   
    66   61   68 1   
    67   62   63 1   
    68   62   64 1   
    69   69   70 1   
    70   69   73 1   
    71   70   71 1   
    72   70   74 1   
    73   70   75 1   
    74   71   72 2   
    75   71   76 1   
    76   76   77 1   
    77   76   85 1   
    78   77   78 1   
    79   77   80 1   
    80   77   86 1   
    81   78   79 2   
    82   78   93 1   
    83   80   81 1   
    84   80   87 1   
    85   80   88 1   
    86   81   82 1   
    87   81   89 1   
    88   81   90 1   
    89   82   83 1   
    90   82   84 2   
    91   83   91 1   
    92   83   92 1   
    93   93   94 1   
    94   93  100 1   
    95   94   95 1   
    96   94   97 1   
    97   94  101 1   
    98   95   96 2   
    99   95  109 1   
   100   97   98 1   
   101   97   99 1   
   102   97  102 1   
   103   98  103 1   
   104   98  104 1   
   105   98  105 1   
   106   99  106 1   
   107   99  107 1   
   108   99  108 1   
   109  109  110 1   
   110  109  117 1   
   111  110  111 1   
   112  110  113 1   
   113  110  118 1   
   114  111  112 2   
   115  111  123 1   
   116  113  114 1   
   117  113  119 1   
   118  113  120 1   
   119  114  115 1   
   120  114  116 2   
   121  115  121 1   
   122  115  122 1   
   123  123  124 1   
   124  123  135 1   
   125  124  125 1   
   126  124  127 1   
   127  124  136 1   
   128  125  126 2   
   129  125  144 1   
   130  127  128 1   
   131  127  137 1   
   132  127  138 1   
   133  128  129 ar  
   134  128  130 ar  
   135  129  131 ar  
   136  129  139 1   
   137  130  132 ar  
   138  130  140 1   
   139  131  133 ar  
   140  131  141 1   
   141  132  133 ar  
   142  132  142 1   
   143  133  134 1   
   144  134  143 1   
   145  144  145 1   
   146  144  153 1   
   147  145  146 1   
   148  145  148 1   
   149  145  154 1   
   150  146  147 2   
   151  146  159 1   
   152  148  149 1   
   153  148  155 1   
   154  148  156 1   
   155  149  150 1   
   156  149  157 1   
   157  149  158 1   
   158  150  151 1   
   159  150  152 1   
   160  159  160 1   
   161  159  168 1   
   162  160  161 1   
   163  160  163 1   
   164  160  169 1   
   165  161  162 2   
   166  161  174 1   
   167  163  164 1   
   168  163  170 1   
   169  163  171 1   
   170  164  165 1   
   171  164  172 1   
   172  164  173 1   
   173  165  166 1   
   174  165  167 1   
   175  174  175 1   
   176  174  179 1   
   177  175  176 1   
   178  175  177 1   
   179  175  178 1   
   180  181  183 1   
   181  181  185 1   
   182  182  184 1   
   183  182  186 1   
   184  187  188 1   
   185  187  189 1   
   186  190  191 1   
   187  190  192 1   
   188  193  194 1   
   189  193  195 1   
   190  196  197 1   
   191  196  198 1   
   192  199  200 1   
   193  199  201 1   
@<TRIPOS>SUBSTRUCTURE
     1 MOL         1 TEMP              0 ****  ****    0 ROOT
