@<TRIPOS>MOLECULE
MOL
  192   187     1     0     0
SMALL
resp


@<TRIPOS>ATOM
      1 C1         -9.1330    0.0880   -2.6950 c3        1 MOL     -0.473191
      2 C2         -8.2360   -0.0860   -1.4270 c         1 MOL      0.925466
      3 O1         -7.0520    0.2150   -1.4750 o         1 MOL     -0.710695
      4 H1        -10.0600    0.5870   -2.4170 hc        1 MOL      0.105843
      5 H2         -8.6040    0.6890   -3.4340 hc        1 MOL      0.105843
      6 H3         -9.3600   -0.8910   -3.1170 hc        1 MOL      0.105843
      7 N1         -8.7570   -0.7300   -0.4390 n         1 MOL     -0.693253
      8 C3         -8.0920   -0.7970    0.9230 c3        1 MOL     -0.052534
      9 C4         -7.1630   -2.0970    1.0480 c         1 MOL      0.605249
     10 O2         -6.9230   -2.6240    2.1280 o         1 MOL     -0.501986
     11 C5         -9.1770   -0.6410    1.9800 c3        1 MOL     -0.063252
     12 C6         -9.9750    0.6580    1.9280 c         1 MOL      0.664933
     13 O3         -9.7220    1.4570    0.9630 o         1 MOL     -0.650118
     14 O4        -10.9430    0.7450    2.7470 o         1 MOL     -0.650118
     15 H4         -9.6780   -1.1490   -0.5070 hn        1 MOL      0.355193
     16 H5         -7.4320    0.0590    1.0770 h1        1 MOL      0.166819
     17 H6         -8.8190   -0.7340    3.0070 hc        1 MOL      0.020396
     18 H7         -9.9630   -1.3940    1.9110 hc        1 MOL      0.020396
     19 N2         -6.7420   -2.7000   -0.1140 n         1 MOL     -0.574079
     20 C7         -5.8100   -3.9090   -0.1310 c3        1 MOL      0.340876
     21 C8         -4.4790   -3.7770    0.6650 c         1 MOL      0.529467
     22 O5         -4.3220   -4.6980    1.4480 o         1 MOL     -0.575922
     23 C9         -5.5190   -4.3090   -1.5410 c3        1 MOL     -0.536222
     24 C10        -6.5570   -5.0230   -2.4350 c3        1 MOL      0.206082
     25 C11        -6.8480   -6.3980   -1.8630 c3        1 MOL     -0.034570
     26 C12        -7.6920   -7.1410   -2.9050 c3        1 MOL     -0.151358
     27 N3         -9.0990   -6.6840   -2.9260 n4        1 MOL     -0.279017
     28 H8         -6.9050   -2.2770   -1.0170 hn        1 MOL      0.233674
     29 H9         -6.2900   -4.8070    0.2540 h1        1 MOL     -0.024849
     30 H10        -4.6180   -4.9030   -1.5550 hc        1 MOL      0.153731
     31 H11        -5.4330   -3.3610   -2.0840 hc        1 MOL      0.153731
     32 H12        -6.0920   -4.9940   -3.4270 hc        1 MOL     -0.018566
     33 H13        -7.5060   -4.5090   -2.6310 hc        1 MOL     -0.018566
     34 H14        -7.4090   -6.2720   -0.9310 hc        1 MOL      0.088503
     35 H15        -6.0110   -7.0650   -1.6530 hc        1 MOL      0.088503
     36 H16        -7.7700   -8.1990   -2.6350 hx        1 MOL      0.121686
     37 H17        -7.2110   -6.8960   -3.8460 hx        1 MOL      0.121686
     38 H18        -9.4430   -6.6570   -1.9740 hn        1 MOL      0.288188
     39 H19        -9.3060   -5.8340   -3.4290 hn        1 MOL      0.288188
     40 H20        -9.6280   -7.3890   -3.4200 hn        1 MOL      0.288188
     41 N4         -3.5920   -2.8310    0.5610 n         1 MOL     -0.372089
     42 C13        -3.5790   -1.6780   -0.3480 c3        1 MOL      0.005935
     43 C14        -3.6980   -0.2360    0.3390 c         1 MOL      0.288862
     44 O6         -3.7090   -0.1550    1.5280 o         1 MOL     -0.457722
     45 C15        -2.4130   -1.6650   -1.3200 c3        1 MOL     -0.254209
     46 C16        -1.1170   -2.0880   -0.6930 c         1 MOL      0.771269
     47 O7         -0.6260   -1.4040    0.2150 o         1 MOL     -0.686118
     48 O8         -0.5280   -3.0980   -1.1410 o         1 MOL     -0.686118
     49 H21        -2.8500   -2.9830    1.2310 hn        1 MOL      0.325757
     50 H22        -4.4520   -1.6540   -1.0040 h1        1 MOL      0.108723
     51 H23        -2.2920   -0.7360   -1.8790 hc        1 MOL      0.040790
     52 H24        -2.7300   -2.4520   -2.0090 hc        1 MOL      0.040790
     53 N5         -3.9380    0.7810   -0.4080 n         1 MOL     -0.012050
     54 C17        -4.0660    2.1280    0.1140 c3        1 MOL     -0.127354
     55 C18        -2.7970    2.7290    0.7910 c         1 MOL      0.731687
     56 O9         -1.7480    2.0820    0.8510 o         1 MOL     -0.758457
     57 H25        -3.8950    0.6380   -1.4090 hn        1 MOL      0.192229
     58 H26        -4.8370    2.0710    0.8720 h1        1 MOL      0.063367
     59 H27        -4.2750    2.8560   -0.6570 h1        1 MOL      0.063367
     60 N6         -2.9720    3.9740    1.2120 n         1 MOL     -0.535771
     61 C19        -1.8450    4.8490    1.7140 c3        1 MOL      0.276376
     62 C20        -2.1710    6.4020    1.5620 c         1 MOL      0.511890
     63 O10        -3.2550    6.8000    1.2200 o         1 MOL     -0.503778
     64 C21        -1.7620    4.5360    3.2480 c3        1 MOL     -0.275178
     65 C22        -1.4610    3.0630    3.6190 c         1 MOL      0.680668
     66 O11        -2.2590    2.4760    4.3900 o         1 MOL     -0.650590
     67 O12        -0.3620    2.5940    3.1740 o         1 MOL     -0.650590
     68 H28        -3.9180    4.3010    1.3200 hn        1 MOL      0.303026
     69 H29        -0.9110    4.6340    1.1990 h1        1 MOL      0.036005
     70 H30        -2.6450    4.9040    3.7850 hc        1 MOL      0.065723
     71 H31        -0.9210    5.0910    3.6680 hc        1 MOL      0.065723
     72 N7         -1.2080    7.3070    1.9600 n         1 MOL     -0.579217
     73 C23         0.2260    7.0870    2.0500 c3        1 MOL      0.103865
     74 C24         0.8430    6.6520    0.6880 c         1 MOL      0.522922
     75 O13         0.2700    6.7990   -0.3910 o         1 MOL     -0.474347
     76 H32        -1.4890    8.2760    1.8750 hn        1 MOL      0.343694
     77 H33         0.3590    6.2860    2.7710 h1        1 MOL      0.033980
     78 H34         0.7590    7.9880    2.3760 h1        1 MOL      0.033980
     79 N8          1.9720    5.9810    0.8140 n         1 MOL     -0.578335
     80 C25         2.5450    5.0820   -0.1710 c3        1 MOL      0.164126
     81 C26         1.6070    4.0600   -0.6790 c         1 MOL      0.543434
     82 O14         0.9330    3.3850    0.1230 o         1 MOL     -0.670812
     83 C27         3.7630    4.3810    0.4340 c3        1 MOL      0.143646
     84 C28         4.8700    5.4080    0.8500 c3        1 MOL     -0.311814
     85 O15         4.3440    3.4280   -0.4920 oh        1 MOL     -0.620304
     86 H35         2.3230    5.9470    1.7580 hn        1 MOL      0.302822
     87 H36         2.7670    5.7410   -1.0190 h1        1 MOL      0.063692
     88 H37         3.4070    3.7840    1.2860 h1        1 MOL      0.117888
     89 H38         5.0900    2.9970   -0.0590 ho        1 MOL      0.416461
     90 H39         4.6350    6.0380    1.7040 hc        1 MOL      0.098022
     91 H40         5.7310    4.8240    1.1640 hc        1 MOL      0.098022
     92 H41         5.2320    6.0050    0.0110 hc        1 MOL      0.098022
     93 N9          1.5210    3.7980   -1.9610 n         1 MOL     -0.409939
     94 C29         0.6100    2.8460   -2.6990 c3        1 MOL     -0.003064
     95 C30         0.9580    1.4160   -2.3570 c         1 MOL      0.394790
     96 O16         0.6770    0.8900   -1.2850 o         1 MOL     -0.612110
     97 C31        -0.8810    3.1920   -2.5560 c3        1 MOL      0.171648
     98 C32        -1.1380    4.6600   -3.0470 c3        1 MOL     -0.010769
     99 C33        -1.6670    2.1860   -3.2710 c3        1 MOL     -0.553100
    100 C34        -2.2970    5.2860   -2.3370 c3        1 MOL     -0.036885
    101 H42         2.0870    4.3830   -2.5580 hn        1 MOL      0.267154
    102 H43         0.8680    2.9480   -3.7540 h1        1 MOL      0.047862
    103 H44        -1.1530    3.0400   -1.5170 hc        1 MOL      0.162845
    104 H45        -1.3210    4.6340   -4.1190 hc        1 MOL      0.001753
    105 H46        -0.2760    5.3110   -2.9020 hc        1 MOL      0.001753
    106 H47        -1.6970    1.1990   -2.8140 hc        1 MOL      0.135854
    107 H48        -2.6650    2.5620   -3.4890 hc        1 MOL      0.135854
    108 H49        -1.1700    1.9870   -4.2260 hc        1 MOL      0.135854
    109 H50        -2.2680    5.1860   -1.2560 hc        1 MOL      0.008173
    110 H51        -2.4780    6.3460   -2.5220 hc        1 MOL      0.008173
    111 H52        -3.1600    4.6840   -2.6220 hc        1 MOL      0.008173
    112 N10         1.7520    0.7300   -3.2280 n         1 MOL     -0.149375
    113 C35         2.1390   -0.7130   -3.0430 c3        1 MOL     -0.055059
    114 C36         3.6750   -0.9150   -3.2010 c         1 MOL      0.496024
    115 O17         4.1430   -2.0280   -3.3220 o         1 MOL     -0.557923
    116 C37         1.3110   -1.6420   -3.9740 c3        1 MOL      0.401297
    117 C38         1.4390   -1.3980   -5.4840 c3        1 MOL     -0.250638
    118 O18        -0.0750   -1.6910   -3.6080 oh        1 MOL     -0.583871
    119 H53         1.9430    1.1120   -4.1420 hn        1 MOL      0.196811
    120 H54         1.9270   -1.0350   -2.0210 h1        1 MOL      0.096001
    121 H55         1.5920   -2.6770   -3.7950 h1        1 MOL      0.010291
    122 H56        -0.0780   -2.3080   -2.8750 ho        1 MOL      0.341495
    123 H57         2.4970   -1.4250   -5.7490 hc        1 MOL      0.052622
    124 H58         0.8690   -2.1390   -6.0610 hc        1 MOL      0.052622
    125 H59         1.0650   -0.4200   -5.8060 hc        1 MOL      0.052622
    126 N11         4.5040    0.1410   -3.1180 n         1 MOL     -0.298242
    127 C39         5.9870    0.0230   -3.1460 c3        1 MOL      0.040791
    128 C40         6.4880   -0.4160   -1.7270 c         1 MOL      0.450624
    129 O19         6.8640    0.4170   -0.8950 o         1 MOL     -0.533739
    130 C41         6.6790    1.3650   -3.5020 c3        1 MOL      0.450962
    131 C42         8.1980    1.2140   -3.6610 c3        1 MOL     -0.449389
    132 O20         6.2290    1.8220   -4.7880 oh        1 MOL     -0.641997
    133 H60         4.0550    1.0480   -3.0950 hn        1 MOL      0.132325
    134 H61         6.2210   -0.6470   -3.9670 h1        1 MOL      0.093158
    135 H62         6.4860    2.1000   -2.7310 h1        1 MOL     -0.023071
    136 H63         6.5300    2.7360   -4.8380 ho        1 MOL      0.392345
    137 H64         8.5460    2.2090   -3.9500 hc        1 MOL      0.111299
    138 H65         8.6680    0.8690   -2.7340 hc        1 MOL      0.111299
    139 H66         8.4370    0.4820   -4.4290 hc        1 MOL      0.111299
    140 N12         6.5300   -1.7240   -1.5140 n         1 MOL     -0.619358
    141 C43         6.4980   -2.3820   -0.2170 c3        1 MOL      0.588004
    142 C44         5.2020   -2.1220    0.5610 c         1 MOL      0.478957
    143 O21         4.4210   -1.2390    0.1440 o         1 MOL     -0.532351
    144 C45         7.7880   -2.2250    0.5580 c3        1 MOL     -0.518904
    145 C46         8.7720   -3.3230    0.2290 c3        1 MOL      0.306508
    146 C47         9.8990   -3.2060    1.2640 c3        1 MOL     -0.032686
    147 C48        11.1880   -4.0740    1.0120 c3        1 MOL     -0.022831
    148 N13        12.1830   -3.3760    0.1580 n4        1 MOL     -0.120009
    149 H67         6.1960   -2.2380   -2.3170 hn        1 MOL      0.301258
    150 H68         6.3750   -3.4480   -0.3920 h1        1 MOL     -0.044428
    151 H69         7.5210   -2.3270    1.6170 hc        1 MOL      0.115123
    152 H70         8.1700   -1.2380    0.3230 hc        1 MOL      0.115123
    153 H71         9.1020   -3.3910   -0.8170 hc        1 MOL     -0.065881
    154 H72         8.1880   -4.2340    0.3590 hc        1 MOL     -0.065881
    155 H73         9.4160   -3.5590    2.1840 hc        1 MOL      0.037610
    156 H74        10.1970   -2.1530    1.2680 hc        1 MOL      0.037610
    157 H75        10.7960   -4.9100    0.4420 hx        1 MOL      0.079955
    158 H76        11.6480   -4.2800    1.9790 hx        1 MOL      0.079955
    159 H77        12.4960   -2.4930    0.5380 hn        1 MOL      0.201963
    160 H78        12.9870   -3.9840    0.1030 hn        1 MOL      0.201963
    161 H79        11.8750   -3.1820   -0.7840 hn        1 MOL      0.201963
    162 N14         4.8140   -2.9280    1.5470 n         1 MOL     -0.472421
    163 C49         3.7210   -2.5010    2.4860 c3        1 MOL      0.183025
    164 C50         2.2410   -2.3800    1.8760 c         1 MOL      0.290747
    165 O22         1.5270   -1.3620    2.1400 o         1 MOL     -0.595081
    166 C51         3.6040   -3.4550    3.7020 c3        1 MOL     -0.153320
    167 C52         4.8580   -3.7040    4.5310 c3        1 MOL     -0.366041
    168 C53         4.6830   -4.9450    5.3750 c         1 MOL      0.741529
    169 O23         5.0590   -6.0290    4.8920 o         1 MOL     -0.663369
    170 O24         4.2550   -4.8610    6.5420 o         1 MOL     -0.663369
    171 H80         5.3210   -3.7580    1.8290 hn        1 MOL      0.343267
    172 H81         3.9520   -1.5360    2.9320 h1        1 MOL      0.030882
    173 H82         3.2880   -4.3730    3.2010 hc        1 MOL      0.119397
    174 H83         2.8230   -3.1310    4.3800 hc        1 MOL      0.119397
    175 H84         4.9520   -2.8930    5.2580 hc        1 MOL      0.076345
    176 H85         5.7110   -3.8140    3.8560 hc        1 MOL      0.076345
    177 N15         1.7950   -3.1770    0.9270 n         1 MOL     -0.120286
    178 C54         2.3210   -4.4100    0.3490 c3        1 MOL     -0.085975
    179 H86         3.3880   -4.4820    0.5580 h1        1 MOL      0.041648
    180 H87         1.8060   -5.2650    0.7860 h1        1 MOL      0.041648
    181 H88         2.1610   -4.4020   -0.7290 h1        1 MOL      0.041648
    182 H89         0.9580   -2.8900    0.4530 hn        1 MOL      0.247300
    183 Ca1         0.5390    0.8900    1.4200 Ca        1 MOL      1.863408
    184 O25        -1.2810    0.0740    3.1020 oh        1 MOL     -0.891895
    185 H90        -1.9670   -0.1190    2.4590 ho        1 MOL      0.421433
    186 H91        -1.6750    0.7250    3.6940 ho        1 MOL      0.421433
    187 O26         2.4300    1.3470    3.4090 oh        1 MOL     -0.891895
    188 H92         3.3370    1.6240    3.3380 ho        1 MOL      0.421433
    189 H93         2.4680    0.5340    3.9170 ho        1 MOL      0.421433
    190 O27         3.0600    1.0340    0.6830 oh        1 MOL     -0.891895
    191 H94         3.5060    0.2030    0.5050 ho        1 MOL      0.421433
    192 H95         3.3280    1.6040   -0.0360 ho        1 MOL      0.421433
@<TRIPOS>BOND
     1    1    2 1   
     2    1    4 1   
     3    1    5 1   
     4    1    6 1   
     5    2    3 2   
     6    2    7 1   
     7    7    8 1   
     8    7   15 1   
     9    8    9 1   
    10    8   11 1   
    11    8   16 1   
    12    9   10 2   
    13    9   19 1   
    14   11   12 1   
    15   11   17 1   
    16   11   18 1   
    17   12   13 1   
    18   12   14 1   
    19   19   20 1   
    20   19   28 1   
    21   20   21 1   
    22   20   23 1   
    23   20   29 1   
    24   21   22 2   
    25   21   41 1   
    26   23   24 1   
    27   23   30 1   
    28   23   31 1   
    29   24   25 1   
    30   24   32 1   
    31   24   33 1   
    32   25   26 1   
    33   25   34 1   
    34   25   35 1   
    35   26   27 1   
    36   26   36 1   
    37   26   37 1   
    38   27   38 1   
    39   27   39 1   
    40   27   40 1   
    41   41   42 1   
    42   41   49 1   
    43   42   43 1   
    44   42   45 1   
    45   42   50 1   
    46   43   44 2   
    47   43   53 1   
    48   45   46 1   
    49   45   51 1   
    50   45   52 1   
    51   46   47 1   
    52   46   48 1   
    53   53   54 1   
    54   53   57 1   
    55   54   55 1   
    56   54   58 1   
    57   54   59 1   
    58   55   56 2   
    59   55   60 1   
    60   60   61 1   
    61   60   68 1   
    62   61   62 1   
    63   61   64 1   
    64   61   69 1   
    65   62   63 2   
    66   62   72 1   
    67   64   65 1   
    68   64   70 1   
    69   64   71 1   
    70   65   66 1   
    71   65   67 1   
    72   72   73 1   
    73   72   76 1   
    74   73   74 1   
    75   73   77 1   
    76   73   78 1   
    77   74   75 2   
    78   74   79 1   
    79   79   80 1   
    80   79   86 1   
    81   80   81 1   
    82   80   83 1   
    83   80   87 1   
    84   81   82 2   
    85   81   93 1   
    86   83   84 1   
    87   83   85 1   
    88   83   88 1   
    89   84   90 1   
    90   84   91 1   
    91   84   92 1   
    92   85   89 1   
    93   93   94 1   
    94   93  101 1   
    95   94   95 1   
    96   94   97 1   
    97   94  102 1   
    98   95   96 2   
    99   95  112 1   
   100   97   98 1   
   101   97   99 1   
   102   97  103 1   
   103   98  100 1   
   104   98  104 1   
   105   98  105 1   
   106   99  106 1   
   107   99  107 1   
   108   99  108 1   
   109  100  109 1   
   110  100  110 1   
   111  100  111 1   
   112  112  113 1   
   113  112  119 1   
   114  113  114 1   
   115  113  116 1   
   116  113  120 1   
   117  114  115 2   
   118  114  126 1   
   119  116  117 1   
   120  116  118 1   
   121  116  121 1   
   122  117  123 1   
   123  117  124 1   
   124  117  125 1   
   125  118  122 1   
   126  126  127 1   
   127  126  133 1   
   128  127  128 1   
   129  127  130 1   
   130  127  134 1   
   131  128  129 2   
   132  128  140 1   
   133  130  131 1   
   134  130  132 1   
   135  130  135 1   
   136  131  137 1   
   137  131  138 1   
   138  131  139 1   
   139  132  136 1   
   140  140  141 1   
   141  140  149 1   
   142  141  142 1   
   143  141  144 1   
   144  141  150 1   
   145  142  143 2   
   146  142  162 1   
   147  144  145 1   
   148  144  151 1   
   149  144  152 1   
   150  145  146 1   
   151  145  153 1   
   152  145  154 1   
   153  146  147 1   
   154  146  155 1   
   155  146  156 1   
   156  147  148 1   
   157  147  157 1   
   158  147  158 1   
   159  148  159 1   
   160  148  160 1   
   161  148  161 1   
   162  162  163 1   
   163  162  171 1   
   164  163  164 1   
   165  163  166 1   
   166  163  172 1   
   167  164  165 2   
   168  164  177 1   
   169  166  167 1   
   170  166  173 1   
   171  166  174 1   
   172  167  168 1   
   173  167  175 1   
   174  167  176 1   
   175  168  169 1   
   176  168  170 1   
   177  177  178 1   
   178  177  182 1   
   179  178  179 1   
   180  178  180 1   
   181  178  181 1   
   182  184  185 1   
   183  184  186 1   
   184  187  188 1   
   185  187  189 1   
   186  190  191 1   
   187  190  192 1   
@<TRIPOS>SUBSTRUCTURE
     1 MOL         1 TEMP              0 ****  ****    0 ROOT
