@<TRIPOS>MOLECULE
MOL
  195   189     1     0     0
SMALL
resp


@<TRIPOS>ATOM
      1 C1          3.9100   -3.6220   -3.9860 c3        1 MOL     -0.233547
      2 C2          3.1500   -3.4460   -2.6550 c         1 MOL      0.687478
      3 O1          2.2920   -2.5730   -2.5860 o         1 MOL     -0.567018
      4 H1          3.7770   -2.7310   -4.6000 hc        1 MOL      0.050828
      5 H2          4.9710   -3.7680   -3.7820 hc        1 MOL      0.050828
      6 H3          3.5190   -4.4900   -4.5160 hc        1 MOL      0.050828
      7 N1          3.3400   -4.1880   -1.5620 n         1 MOL     -0.439259
      8 C3          2.5640   -4.0400   -0.2720 c3        1 MOL      0.035166
      9 C4          1.0290   -4.0120   -0.4200 c         1 MOL      0.658697
     10 O2          0.3200   -3.1850    0.2160 o         1 MOL     -0.595667
     11 C5          3.1640   -2.9560    0.6270 c3        1 MOL     -0.080361
     12 C6          4.6910   -3.0460    0.7690 c         1 MOL      0.583787
     13 O3          5.4450   -2.5010   -0.0560 o         1 MOL     -0.748556
     14 O4          5.2600   -3.5620    1.7720 o         1 MOL     -0.748556
     15 H4          4.1520   -4.7820   -1.4930 hn        1 MOL      0.219617
     16 H5          2.7870   -4.9410    0.2970 h1        1 MOL      0.039854
     17 H6          2.6300   -3.0050    1.5710 hc        1 MOL      0.073067
     18 H7          2.7740   -2.0360    0.1810 hc        1 MOL      0.073067
     19 N2          0.4430   -4.9610   -1.1450 n         1 MOL     -0.430621
     20 C7         -0.9350   -5.2120   -1.3730 c3        1 MOL     -0.007928
     21 C8         -1.5960   -6.0250   -0.2500 c         1 MOL      0.449240
     22 O5         -0.9440   -6.9310    0.3210 o         1 MOL     -0.559824
     23 C9         -1.1410   -5.8460   -2.7550 c3        1 MOL      0.428871
     24 C10        -0.2050   -7.0600   -3.0050 c3        1 MOL      0.082106
     25 C11        -1.0750   -4.8540   -4.0030 c3        1 MOL     -0.453557
     26 C12        -0.7390   -7.8640   -4.2070 c3        1 MOL     -0.286229
     27 H8          1.0990   -5.5320   -1.6790 hn        1 MOL      0.137694
     28 H9         -1.3870   -4.2280   -1.4070 h1        1 MOL      0.048567
     29 H10        -2.1410   -6.2610   -2.6780 hc        1 MOL     -0.070958
     30 H11        -0.2320   -7.6660   -2.0910 hc        1 MOL     -0.017247
     31 H12         0.7740   -6.6510   -3.2220 hc        1 MOL     -0.017247
     32 H13        -1.3910   -5.3450   -4.9170 hc        1 MOL      0.104015
     33 H14        -1.7710   -4.0750   -3.6900 hc        1 MOL      0.104015
     34 H15        -0.0380   -4.5220   -4.0760 hc        1 MOL      0.104015
     35 H16        -0.2220   -8.8040   -4.4050 hc        1 MOL      0.056462
     36 H17        -1.7890   -8.0880   -4.0280 hc        1 MOL      0.056462
     37 H18        -0.7790   -7.2170   -5.0840 hc        1 MOL      0.056462
     38 N3         -2.8720   -5.8050    0.1570 n         1 MOL     -0.394604
     39 C13        -3.7200   -4.6310   -0.0680 c3        1 MOL      0.133489
     40 C14        -3.6480   -3.4400    0.9070 c         1 MOL      0.378841
     41 O6         -3.9850   -2.2980    0.4570 o         1 MOL     -0.506937
     42 C15        -5.1820   -4.9980   -0.2590 c3        1 MOL     -0.176612
     43 C16        -5.9240   -5.5650    0.9870 c         1 MOL      0.779475
     44 O7         -5.2760   -6.0410    1.9270 o         1 MOL     -0.739298
     45 O8         -7.1780   -5.6080    0.8400 o         1 MOL     -0.739298
     46 H19        -3.2000   -6.4930    0.8170 hn        1 MOL      0.269005
     47 H20        -3.4300   -4.2090   -1.0350 h1        1 MOL     -0.019220
     48 H21        -5.2330   -5.8340   -0.9550 hc        1 MOL      0.014377
     49 H22        -5.7640   -4.1640   -0.6370 hc        1 MOL      0.014377
     50 N4         -3.0580   -3.6230    2.1330 n         1 MOL     -0.139958
     51 C17        -3.0430   -2.5880    3.1670 c3        1 MOL     -0.336892
     52 C18        -4.4710   -2.2140    3.4780 c         1 MOL      0.616418
     53 O9         -5.3150   -3.0820    3.7440 o         1 MOL     -0.551309
     54 H23        -2.6290   -4.5280    2.2790 hn        1 MOL      0.263076
     55 H24        -2.5440   -1.7110    2.7610 h1        1 MOL      0.137523
     56 H25        -2.6380   -3.0140    4.0780 h1        1 MOL      0.137523
     57 N5         -4.8520   -0.9440    3.4270 n         1 MOL     -0.591645
     58 C19        -6.1880   -0.3640    3.7280 c3        1 MOL      0.321210
     59 C20        -7.1540   -0.3480    2.5840 c         1 MOL      0.346755
     60 O10        -8.3060    0.0620    2.7650 o         1 MOL     -0.540911
     61 C21        -6.1150    0.9920    4.3910 c3        1 MOL     -0.438716
     62 C22        -5.4540    1.9850    3.4690 c         1 MOL      0.902326
     63 O11        -5.1660    1.6410    2.3530 o         1 MOL     -0.730703
     64 O12        -5.0860    3.0120    4.0680 o         1 MOL     -0.730703
     65 H26        -4.1110   -0.2790    3.2750 hn        1 MOL      0.337253
     66 H27        -6.7080   -1.0360    4.4020 h1        1 MOL      0.034490
     67 H28        -5.5750    0.8020    5.3220 hc        1 MOL      0.070398
     68 H29        -7.1670    1.2650    4.5370 hc        1 MOL      0.070398
     69 N6         -6.7710   -0.9290    1.4720 n         1 MOL     -0.164588
     70 C23        -7.5850   -0.9400    0.1980 c3        1 MOL     -0.275279
     71 C24        -7.5620    0.3280   -0.5500 c         1 MOL      0.489390
     72 O13        -7.8810    0.3910   -1.7150 o         1 MOL     -0.592385
     73 H30        -5.9070   -1.4390    1.4790 hn        1 MOL      0.236631
     74 H31        -8.5990   -1.2170    0.4790 h1        1 MOL      0.145333
     75 H32        -7.2240   -1.7550   -0.4370 h1        1 MOL      0.145333
     76 N7         -7.1700    1.4280    0.0610 n         1 MOL      0.119588
     77 C25        -7.1360    2.8260   -0.4170 c3        1 MOL     -0.106055
     78 C26        -6.4790    3.0610   -1.7730 c         1 MOL      0.567555
     79 O14        -6.9870    3.8490   -2.5570 o         1 MOL     -0.537488
     80 C27        -8.5760    3.4370   -0.2050 c3        1 MOL     -0.045915
     81 C28        -8.7700    3.3690    1.3470 c3        1 MOL     -0.170492
     82 C29        -8.0470    4.4240    2.1790 c         1 MOL      0.665657
     83 N8         -8.1150    4.3450    3.4690 n         1 MOL     -0.911665
     84 O15        -7.3000    5.2550    1.7060 o         1 MOL     -0.542694
     85 H33        -6.7950    1.2640    0.9860 hn        1 MOL     -0.028785
     86 H34        -6.4980    3.3210    0.3110 h1        1 MOL      0.127431
     87 H35        -9.2570    2.7110   -0.6610 hc        1 MOL      0.043074
     88 H36        -8.6600    4.4440   -0.6120 hc        1 MOL      0.043074
     89 H37        -8.4250    2.4600    1.8490 hc        1 MOL      0.016918
     90 H38        -9.8310    3.5070    1.5840 hc        1 MOL      0.016918
     91 H39        -8.6780    3.5810    3.8050 hn        1 MOL      0.406933
     92 H40        -7.4420    4.8370    4.0370 hn        1 MOL      0.406933
     93 N9         -5.3900    2.3740   -2.0750 n         1 MOL     -0.377465
     94 C30        -4.5760    2.5910   -3.2530 c3        1 MOL     -0.137973
     95 C31        -3.1700    2.3100   -3.0040 c         1 MOL      0.742379
     96 O16        -2.3450    2.9440   -3.6330 o         1 MOL     -0.594780
     97 C32        -5.0170    1.7120   -4.3940 c3        1 MOL      0.383323
     98 C33        -5.0640    0.2590   -3.8690 c3        1 MOL     -0.309467
     99 C34        -6.3410    2.0230   -4.9790 c3        1 MOL     -0.309467
    100 H41        -5.1050    1.7040   -1.3760 hn        1 MOL      0.184513
    101 H42        -4.5580    3.6120   -3.6270 h1        1 MOL      0.099541
    102 H43        -4.2120    1.7850   -5.1320 hc        1 MOL     -0.069633
    103 H44        -5.8450    0.1330   -3.1110 hc        1 MOL      0.058400
    104 H45        -5.2810   -0.3350   -4.7520 hc        1 MOL      0.058400
    105 H46        -4.1020   -0.1030   -3.4990 hc        1 MOL      0.058400
    106 H47        -7.0410    1.9920   -4.1390 hc        1 MOL      0.058400
    107 H48        -6.2950    3.0460   -5.3620 hc        1 MOL      0.058400
    108 H49        -6.5280    1.2650   -5.7330 hc        1 MOL      0.058400
    109 N10        -2.7840    1.4620   -2.0340 n         1 MOL     -0.610194
    110 C35        -1.4240    0.9780   -1.8210 c3        1 MOL      0.104580
    111 C36        -0.7740    1.7560   -0.6450 c         1 MOL      0.603672
    112 O17        -1.3150    2.0190    0.4450 o         1 MOL     -0.500929
    113 C37        -1.3110   -0.5250   -1.4990 c3        1 MOL     -0.276688
    114 C38        -1.8680   -1.3700   -2.6240 c         1 MOL      0.622673
    115 N11        -2.9590   -2.0360   -2.2540 n         1 MOL     -0.417363
    116 O18        -1.5500   -1.2730   -3.7930 o         1 MOL     -0.577857
    117 H50        -3.4640    0.9430   -1.4920 hn        1 MOL      0.330311
    118 H51        -0.8100    1.0670   -2.7180 h1        1 MOL      0.079998
    119 H52        -1.8220   -0.7130   -0.5580 hc        1 MOL      0.117337
    120 H53        -0.2920   -0.9160   -1.4100 hc        1 MOL      0.117337
    121 H54        -3.3910   -1.9370   -1.3500 hn        1 MOL      0.232708
    122 H55        -3.5980   -2.2620   -3.0090 hn        1 MOL      0.232708
    123 N12         0.5860    1.8350   -0.8660 n         1 MOL     -0.640071
    124 C39         1.4450    2.5790    0.0620 c3        1 MOL      0.373320
    125 C40         2.5150    3.2840   -0.7860 c         1 MOL      0.506316
    126 O19         2.8620    2.8220   -1.9000 o         1 MOL     -0.570841
    127 C41         1.9840    1.6360    1.0740 c3        1 MOL     -0.263927
    128 C42         2.5520    2.2660    2.2440 ca        1 MOL      0.180444
    129 C43         3.8430    2.8440    2.3310 ca        1 MOL     -0.272543
    130 C44         1.8100    2.1430    3.4120 ca        1 MOL     -0.272543
    131 C45         4.3420    3.3950    3.5120 ca        1 MOL     -0.156853
    132 C46         2.2970    2.6930    4.6200 ca        1 MOL     -0.156853
    133 C47         3.5560    3.3410    4.6840 ca        1 MOL      0.249837
    134 O20         3.9100    3.9870    5.8040 oh        1 MOL     -0.529656
    135 H56         0.9140    1.6860   -1.8070 hn        1 MOL      0.310409
    136 H57         0.8990    3.4020    0.5400 h1        1 MOL      0.004436
    137 H58         2.7880    1.0550    0.6160 hc        1 MOL      0.070100
    138 H59         1.1820    0.9770    1.4070 hc        1 MOL      0.070100
    139 H60         4.4840    2.7470    1.4630 ha        1 MOL      0.191087
    140 H61         0.8780    1.6110    3.4720 ha        1 MOL      0.191087
    141 H62         5.3610    3.7610    3.5410 ha        1 MOL      0.113906
    142 H63         1.7250    2.4890    5.5230 ha        1 MOL      0.113906
    143 H64         4.6900    4.5430    5.7430 ho        1 MOL      0.401072
    144 N13         3.0100    4.4290   -0.2700 n         1 MOL     -0.489095
    145 C48         4.0970    5.1570   -0.8810 c3        1 MOL      0.037047
    146 C49         5.3750    5.1350   -0.0040 c         1 MOL      0.438722
    147 O21         5.5940    5.9390    0.9500 o         1 MOL     -0.565403
    148 C50         3.6290    6.5840   -1.0100 c3        1 MOL      0.100355
    149 C51         2.4920    6.7700   -2.0070 c3        1 MOL     -0.222836
    150 C52         1.7740    8.1120   -1.7460 c         1 MOL      0.719445
    151 O22         1.0000    8.1940   -0.7840 o         1 MOL     -0.676011
    152 O23         2.0960    9.0690   -2.4240 o         1 MOL     -0.676011
    153 H65         2.6750    4.7170    0.6380 hn        1 MOL      0.341531
    154 H66         4.3360    4.8110   -1.8860 h1        1 MOL      0.149074
    155 H67         4.4570    7.1950   -1.3660 hc        1 MOL      0.007108
    156 H68         3.3280    7.0030   -0.0520 hc        1 MOL      0.007108
    157 H69         1.7410    5.9790   -1.9390 hc        1 MOL      0.022588
    158 H70         2.8430    6.7160   -3.0440 hc        1 MOL      0.022588
    159 N14         6.2960    4.2240   -0.1890 n         1 MOL     -0.520322
    160 C53         6.2220    3.0200   -1.0560 c3        1 MOL      0.225385
    161 C54         6.3810    3.3630   -2.5730 c         1 MOL      0.405104
    162 O24         6.8420    4.4350   -2.9920 o         1 MOL     -0.502243
    163 C55         7.3260    2.0700   -0.5610 c3        1 MOL     -0.184744
    164 C56         7.3970    1.7650    0.8940 c3        1 MOL     -0.041456
    165 C57         8.4100    0.6410    1.2150 c         1 MOL      0.730435
    166 O25         9.5970    1.0200    1.3280 o         1 MOL     -0.705158
    167 O26         8.0500   -0.4970    1.5010 o         1 MOL     -0.705158
    168 H71         7.1810    4.4140    0.2680 hn        1 MOL      0.346672
    169 H72         5.2050    2.6220   -0.9650 h1        1 MOL      0.023963
    170 H73         8.3170    2.4620   -0.7840 hc        1 MOL      0.024091
    171 H74         7.1580    1.2050   -1.2110 hc        1 MOL      0.024091
    172 H75         6.3860    1.5120    1.2210 hc        1 MOL     -0.001628
    173 H76         7.7440    2.6350    1.4480 hc        1 MOL     -0.001628
    174 N15         6.1290    2.2930   -3.3410 n         1 MOL     -0.333645
    175 C58         6.0090    2.2860   -4.8460 c3        1 MOL     -0.154650
    176 H77         6.8640    1.7640   -5.2760 h1        1 MOL      0.092603
    177 H78         5.0900    1.7750   -5.1360 h1        1 MOL      0.092603
    178 H79         5.9860    3.3110   -5.2140 h1        1 MOL      0.092603
    179 H80         5.7840    1.4420   -2.9210 hn        1 MOL      0.286198
    180 Ca1         7.7210   -3.0030    1.3120 Ca        1 MOL      1.695879
    181 O27         9.9750   -2.2800    2.8290 oh        1 MOL     -0.822283
    182 H81        10.6660   -2.5120    3.4550 ho        1 MOL      0.393371
    183 H82        10.4340   -1.8450    2.1120 ho        1 MOL      0.393371
    184 O28         8.0840   -5.0210    3.0930 oh        1 MOL     -0.822283
    185 H83         8.3480   -4.8010    3.9890 ho        1 MOL      0.393371
    186 H84         7.6080   -5.8480    3.1830 ho        1 MOL      0.393371
    187 O29         8.8470   -2.2780   -1.1920 oh        1 MOL     -0.822283
    188 H85         8.2790   -1.6320   -1.6240 ho        1 MOL      0.393371
    189 H86         9.1880   -2.8120   -1.9170 ho        1 MOL      0.393371
    190 O30         9.9600   -4.4370    0.6780 oh        1 MOL     -0.822283
    191 H87        10.6800   -4.5340    0.0520 ho        1 MOL      0.393371
    192 H88        10.2230   -4.9830    1.4250 ho        1 MOL      0.393371
    193 O31         7.1990   -2.1910    3.8380 oh        1 MOL     -0.822283
    194 H89         6.8090   -2.5240    4.6540 ho        1 MOL      0.393371
    195 H90         6.7930   -1.3260    3.7230 ho        1 MOL      0.393371
@<TRIPOS>BOND
     1    1    2 1   
     2    1    4 1   
     3    1    5 1   
     4    1    6 1   
     5    2    3 2   
     6    2    7 1   
     7    7    8 1   
     8    7   15 1   
     9    8    9 1   
    10    8   11 1   
    11    8   16 1   
    12    9   10 2   
    13    9   19 1   
    14   11   12 1   
    15   11   17 1   
    16   11   18 1   
    17   12   13 1   
    18   12   14 1   
    19   19   20 1   
    20   19   27 1   
    21   20   21 1   
    22   20   23 1   
    23   20   28 1   
    24   21   22 2   
    25   21   38 1   
    26   23   24 1   
    27   23   25 1   
    28   23   29 1   
    29   24   26 1   
    30   24   30 1   
    31   24   31 1   
    32   25   32 1   
    33   25   33 1   
    34   25   34 1   
    35   26   35 1   
    36   26   36 1   
    37   26   37 1   
    38   38   39 1   
    39   38   46 1   
    40   39   40 1   
    41   39   42 1   
    42   39   47 1   
    43   40   41 2   
    44   40   50 1   
    45   42   43 1   
    46   42   48 1   
    47   42   49 1   
    48   43   44 1   
    49   43   45 1   
    50   50   51 1   
    51   50   54 1   
    52   51   52 1   
    53   51   55 1   
    54   51   56 1   
    55   52   53 2   
    56   52   57 1   
    57   57   58 1   
    58   57   65 1   
    59   58   59 1   
    60   58   61 1   
    61   58   66 1   
    62   59   60 2   
    63   59   69 1   
    64   61   62 1   
    65   61   67 1   
    66   61   68 1   
    67   62   63 1   
    68   62   64 1   
    69   69   70 1   
    70   69   73 1   
    71   70   71 1   
    72   70   74 1   
    73   70   75 1   
    74   71   72 2   
    75   71   76 1   
    76   76   77 1   
    77   76   85 1   
    78   77   78 1   
    79   77   80 1   
    80   77   86 1   
    81   78   79 2   
    82   78   93 1   
    83   80   81 1   
    84   80   87 1   
    85   80   88 1   
    86   81   82 1   
    87   81   89 1   
    88   81   90 1   
    89   82   83 1   
    90   82   84 2   
    91   83   91 1   
    92   83   92 1   
    93   93   94 1   
    94   93  100 1   
    95   94   95 1   
    96   94   97 1   
    97   94  101 1   
    98   95   96 2   
    99   95  109 1   
   100   97   98 1   
   101   97   99 1   
   102   97  102 1   
   103   98  103 1   
   104   98  104 1   
   105   98  105 1   
   106   99  106 1   
   107   99  107 1   
   108   99  108 1   
   109  109  110 1   
   110  109  117 1   
   111  110  111 1   
   112  110  113 1   
   113  110  118 1   
   114  111  112 2   
   115  111  123 1   
   116  113  114 1   
   117  113  119 1   
   118  113  120 1   
   119  114  115 1   
   120  114  116 2   
   121  115  121 1   
   122  115  122 1   
   123  123  124 1   
   124  123  135 1   
   125  124  125 1   
   126  124  127 1   
   127  124  136 1   
   128  125  126 2   
   129  125  144 1   
   130  127  128 1   
   131  127  137 1   
   132  127  138 1   
   133  128  129 ar  
   134  128  130 ar  
   135  129  131 ar  
   136  129  139 1   
   137  130  132 ar  
   138  130  140 1   
   139  131  133 ar  
   140  131  141 1   
   141  132  133 ar  
   142  132  142 1   
   143  133  134 1   
   144  134  143 1   
   145  144  145 1   
   146  144  153 1   
   147  145  146 1   
   148  145  148 1   
   149  145  154 1   
   150  146  147 2   
   151  146  159 1   
   152  148  149 1   
   153  148  155 1   
   154  148  156 1   
   155  149  150 1   
   156  149  157 1   
   157  149  158 1   
   158  150  151 1   
   159  150  152 1   
   160  159  160 1   
   161  159  168 1   
   162  160  161 1   
   163  160  163 1   
   164  160  169 1   
   165  161  162 2   
   166  161  174 1   
   167  163  164 1   
   168  163  170 1   
   169  163  171 1   
   170  164  165 1   
   171  164  172 1   
   172  164  173 1   
   173  165  166 1   
   174  165  167 1   
   175  174  175 1   
   176  174  179 1   
   177  175  176 1   
   178  175  177 1   
   179  175  178 1   
   180  181  182 1   
   181  181  183 1   
   182  184  185 1   
   183  184  186 1   
   184  187  188 1   
   185  187  189 1   
   186  190  191 1   
   187  190  192 1   
   188  193  194 1   
   189  193  195 1   
@<TRIPOS>SUBSTRUCTURE
     1 MOL         1 TEMP              0 ****  ****    0 ROOT
