@<TRIPOS>MOLECULE
MOL
  181   177     1     0     0
SMALL
resp


@<TRIPOS>ATOM
      1 C1         -4.1850   -1.4810   -4.0740 c3        1 MOL     -0.358452
      2 C2         -5.4500   -0.6400   -3.7400 c         1 MOL      0.615033
      3 O1         -5.4500    0.5530   -3.8230 o         1 MOL     -0.580168
      4 H1         -4.4870   -2.4800   -4.3890 hc        1 MOL      0.086047
      5 H2         -3.6300   -0.9980   -4.8780 hc        1 MOL      0.086047
      6 H3         -3.5530   -1.5550   -3.1890 hc        1 MOL      0.086047
      7 N1         -6.5490   -1.3410   -3.3940 n         1 MOL     -0.404145
      8 C3         -7.8510   -0.7680   -2.9170 c3        1 MOL      0.005841
      9 C4         -7.7600   -0.3000   -1.4250 c         1 MOL      0.527961
     10 O2         -8.6230    0.4570   -1.0360 o         1 MOL     -0.563534
     11 C5         -9.1030   -1.6620   -3.1000 c3        1 MOL     -0.194630
     12 C6         -8.9640   -3.0370   -2.5770 c         1 MOL      0.750523
     13 O3         -9.9760   -3.7470   -2.5010 o         1 MOL     -0.730792
     14 O4         -7.8390   -3.4270   -2.1770 o         1 MOL     -0.730792
     15 H4         -6.5240   -2.3540   -3.3590 hn        1 MOL      0.239275
     16 H5         -7.9190    0.1520   -3.5080 h1        1 MOL      0.055540
     17 H6         -9.3440   -1.6820   -4.1630 hc        1 MOL      0.044934
     18 H7         -9.9530   -1.1620   -2.6210 hc        1 MOL      0.044934
     19 N2         -6.7730   -0.7210   -0.6500 n         1 MOL     -0.168306
     20 C7         -6.7140   -0.4380    0.7680 c3        1 MOL     -0.220436
     21 C8         -5.7460   -1.3640    1.5680 c         1 MOL      0.544418
     22 O5         -5.8390   -1.3170    2.8280 o         1 MOL     -0.512650
     23 C9         -6.2750    1.0330    0.9260 c3        1 MOL     -0.186066
     24 H8         -6.0900   -1.3640   -1.0250 hn        1 MOL      0.086422
     25 H9         -7.7180   -0.6490    1.1310 h1        1 MOL      0.166134
     26 H10        -7.0520    1.7580    0.6860 hc        1 MOL      0.075488
     27 H11        -5.9030    1.1560    1.9360 hc        1 MOL      0.075488
     28 H12        -5.3890    1.2110    0.3140 hc        1 MOL      0.075488
     29 N3         -4.8440   -2.0570    0.9430 n         1 MOL     -0.398445
     30 C10        -3.8770   -2.9750    1.6510 c3        1 MOL     -0.036536
     31 C11        -3.3890   -2.6520    3.0750 c         1 MOL      0.598907
     32 O6         -3.8810   -3.1840    4.1250 o         1 MOL     -0.487293
     33 C12        -4.3710   -4.3730    1.5580 c3        1 MOL     -0.225404
     34 C13        -3.2050   -5.3550    1.9900 c         1 MOL      0.623559
     35 O7         -3.3060   -6.2800    2.8400 o         1 MOL     -0.668529
     36 O8         -2.0840   -5.1810    1.4130 o         1 MOL     -0.668529
     37 H13        -4.7700   -1.9970   -0.0650 hn        1 MOL      0.371652
     38 H14        -3.0140   -2.9600    0.9830 h1        1 MOL     -0.012881
     39 H15        -4.6380   -4.6510    0.5420 hc        1 MOL      0.091865
     40 H16        -5.1690   -4.4540    2.2920 hc        1 MOL      0.091865
     41 N4         -2.4530   -1.7240    3.1720 n         1 MOL     -0.305961
     42 C14        -1.7320   -1.2010    4.3320 c3        1 MOL     -0.262423
     43 C15        -2.4200    0.0800    4.7190 c         1 MOL      0.666369
     44 O9         -3.1860    0.0740    5.6920 o         1 MOL     -0.526434
     45 H17        -2.1740   -1.3940    2.2580 hn        1 MOL      0.250819
     46 H18        -0.6960   -1.0160    4.0340 h1        1 MOL      0.115268
     47 H19        -1.7080   -1.9020    5.1720 h1        1 MOL      0.115268
     48 N5         -2.1350    1.1500    4.0400 n         1 MOL     -0.654849
     49 C16        -2.6170    2.5580    4.1480 c3        1 MOL      0.596389
     50 C17        -3.1210    3.1130    2.7690 c         1 MOL      0.405172
     51 O10        -3.1330    2.3430    1.7930 o         1 MOL     -0.459798
     52 C18        -1.6080    3.5170    4.8140 c3        1 MOL     -0.551680
     53 C19        -1.0930    3.2750    6.2220 c         1 MOL      0.740265
     54 N6         -0.0420    2.5290    6.3840 n         1 MOL     -0.794310
     55 O11        -1.7300    3.6620    7.1940 o         1 MOL     -0.562551
     56 H20        -1.4770    1.0160    3.2890 hn        1 MOL      0.301185
     57 H21        -3.5010    2.5430    4.7900 h1        1 MOL     -0.005835
     58 H22        -2.2020    4.4120    4.9820 hc        1 MOL      0.099872
     59 H23        -0.8160    3.7960    4.1230 hc        1 MOL      0.099872
     60 H24         0.4740    2.3720    5.5240 hn        1 MOL      0.367189
     61 H25         0.3010    2.3050    7.3080 hn        1 MOL      0.367189
     62 N7         -3.5570    4.3810    2.5780 n         1 MOL     -0.597492
     63 C20        -3.8290    5.0080    1.2750 c3        1 MOL      0.101066
     64 C21        -2.4600    5.4360    0.6870 c         1 MOL      0.531918
     65 O12        -1.3470    5.1870    1.1430 o         1 MOL     -0.463493
     66 H26        -3.3930    5.0540    3.3100 hn        1 MOL      0.323914
     67 H27        -4.4630    5.8860    1.4520 h1        1 MOL      0.065202
     68 H28        -4.3690    4.3560    0.5950 h1        1 MOL      0.065202
     69 N8         -2.6360    6.1180   -0.4750 n         1 MOL     -0.526486
     70 C22        -1.5210    6.8940   -0.9690 c3        1 MOL     -0.064626
     71 C23        -0.3690    6.1430   -1.6360 c         1 MOL      0.404088
     72 O13         0.6890    6.6670   -1.7960 o         1 MOL     -0.552287
     73 C24        -1.9600    8.0680   -1.8800 c3        1 MOL      0.421131
     74 C25        -2.8700    7.7440   -3.0350 c3        1 MOL     -0.257511
     75 O14        -2.5890    8.9690   -1.0030 oh        1 MOL     -0.659629
     76 H29        -3.5440    6.2550   -0.9090 hn        1 MOL      0.274266
     77 H30        -0.9780    7.3740   -0.1560 h1        1 MOL      0.122545
     78 H31        -1.0840    8.5550   -2.3150 h1        1 MOL      0.042621
     79 H32        -3.4650    8.6290   -0.8160 ho        1 MOL      0.384425
     80 H33        -2.9480    8.5180   -3.7990 hc        1 MOL      0.058245
     81 H34        -2.4280    6.8790   -3.5360 hc        1 MOL      0.058245
     82 H35        -3.8830    7.5250   -2.6800 hc        1 MOL      0.058245
     83 N9         -0.4930    4.8190   -1.9240 n         1 MOL     -0.136088
     84 C26         0.6070    3.8540   -2.3100 c3        1 MOL     -0.036299
     85 C27         0.4370    2.5690   -1.4430 c         1 MOL      0.423262
     86 O15        -0.6170    2.2120   -1.0370 o         1 MOL     -0.444565
     87 C28         0.6660    3.4960   -3.8080 c3        1 MOL      0.092720
     88 C29        -0.6110    2.8420   -4.3970 c3        1 MOL      0.058886
     89 C30         1.0010    4.6880   -4.7160 c3        1 MOL     -0.442661
     90 C31        -1.9910    3.5110   -4.4670 c3        1 MOL     -0.152044
     91 H36        -1.3590    4.3800   -1.6670 hn        1 MOL      0.217289
     92 H37         1.5850    4.3080   -2.1100 h1        1 MOL      0.086543
     93 H38         1.5370    2.8620   -3.8900 hc        1 MOL      0.015421
     94 H39        -0.6500    1.8930   -3.8620 hc        1 MOL      0.010934
     95 H40        -0.4480    2.4830   -5.4170 hc        1 MOL      0.010934
     96 H41         0.6250    4.5780   -5.7360 hc        1 MOL      0.106792
     97 H42         0.4840    5.5550   -4.3100 hc        1 MOL      0.106792
     98 H43         2.0910    4.8340   -4.6680 hc        1 MOL      0.106792
     99 H44        -2.7970    2.7680   -4.4830 hc        1 MOL      0.037426
    100 H45        -2.2280    4.0640   -3.5630 hc        1 MOL      0.037426
    101 H46        -1.9950    4.1160   -5.3730 hc        1 MOL      0.037426
    102 N10         1.5260    1.8400   -1.2390 n         1 MOL     -0.504393
    103 C32         1.6680    0.5760   -0.5520 c3        1 MOL      0.213042
    104 C33         3.0550    0.3440    0.0720 c         1 MOL      0.451352
    105 O16         3.5150   -0.8130    0.1330 o         1 MOL     -0.479166
    106 C34         1.2280   -0.5030   -1.5550 c3        1 MOL     -0.208603
    107 C35         0.7810   -1.7980   -0.8980 c         1 MOL      0.765983
    108 O17         0.7350   -2.8470   -1.5140 o         1 MOL     -0.763265
    109 O18         0.2700   -1.6880    0.2600 o         1 MOL     -0.763265
    110 H47         2.3980    2.0780   -1.6820 hn        1 MOL      0.273334
    111 H48         0.9380    0.6110    0.2580 h1        1 MOL      0.081678
    112 H49         1.8750   -0.6650   -2.4170 hc        1 MOL      0.062887
    113 H50         0.3640   -0.2110   -2.1450 hc        1 MOL      0.062887
    114 N11         3.7690    1.4360    0.3890 n         1 MOL     -0.469414
    115 C36         5.1790    1.2780    0.9550 c3        1 MOL      0.160555
    116 C37         6.1250    0.5320   -0.0720 c         1 MOL      0.206493
    117 O19         5.9900    0.6650   -1.3060 o         1 MOL     -0.496928
    118 C38         5.7840    2.6800    1.2580 c3        1 MOL     -0.139432
    119 C39         7.2830    2.7180    1.5970 ca        1 MOL      0.058590
    120 C40         7.7920    2.6610    2.9230 ca        1 MOL     -0.203497
    121 C41         8.2630    2.6420    0.5180 ca        1 MOL     -0.203497
    122 C42         9.2060    2.6240    3.1280 ca        1 MOL     -0.058535
    123 C43         9.6430    2.7220    0.7730 ca        1 MOL     -0.058535
    124 C44        10.1520    2.6450    2.0590 ca        1 MOL     -0.163041
    125 H51         3.3460    2.3470    0.3690 hn        1 MOL      0.256521
    126 H52         5.1620    0.6780    1.8670 h1        1 MOL      0.044831
    127 H53         5.1880    3.1520    2.0440 hc        1 MOL      0.085783
    128 H54         5.7500    3.4230    0.4520 hc        1 MOL      0.085783
    129 H55         7.0870    2.5570    3.7270 ha        1 MOL      0.134894
    130 H56         7.9910    2.8960   -0.4960 ha        1 MOL      0.134894
    131 H57         9.6160    2.6080    4.1290 ha        1 MOL      0.095973
    132 H58        10.3620    2.7350   -0.0340 ha        1 MOL      0.095973
    133 H59        11.2240    2.6330    2.1630 ha        1 MOL      0.125452
    134 N12         7.0230   -0.3310    0.4360 n         1 MOL      0.237175
    135 C45         8.0600   -0.8520   -0.4700 c3        1 MOL     -0.077099
    136 C46         7.4930   -1.8050   -1.5040 c         1 MOL      0.359883
    137 O20         8.0070   -1.8730   -2.5790 o         1 MOL     -0.521934
    138 C47         9.0690   -1.5710    0.4130 c3        1 MOL     -0.043586
    139 C48         8.3900   -1.7900    1.7870 c3        1 MOL     -0.019931
    140 C49         7.2670   -0.6940    1.8910 c3        1 MOL     -0.088079
    141 H60         8.4450    0.0660   -0.9170 h1        1 MOL      0.084518
    142 H61         9.2750   -2.5920    0.1150 hc        1 MOL      0.036553
    143 H62         9.9760   -0.9640    0.4970 hc        1 MOL      0.036553
    144 H63         7.8220   -2.7080    1.8770 hc        1 MOL      0.023316
    145 H64         9.1970   -1.8200    2.5240 hc        1 MOL      0.023316
    146 H65         6.3700   -1.1040    2.3510 h1        1 MOL      0.035758
    147 H66         7.5800    0.1490    2.5130 h1        1 MOL      0.035758
    148 N13         6.3400   -2.4160   -1.2580 n         1 MOL     -0.177504
    149 C50         5.7210   -3.2600   -2.2890 c3        1 MOL     -0.127467
    150 C51         5.4890   -2.5350   -3.6640 c         1 MOL      0.515319
    151 O21         5.5260   -3.1510   -4.7130 o         1 MOL     -0.543473
    152 C52         4.4130   -3.8580   -1.7780 c3        1 MOL      0.043341
    153 C53         4.6170   -5.0650   -0.8800 c3        1 MOL     -0.086802
    154 C54         3.2620   -5.3660   -0.1930 c         1 MOL      0.595991
    155 O22         2.7220   -4.6720    0.6820 o         1 MOL     -0.678861
    156 O23         2.6660   -6.3540   -0.6220 o         1 MOL     -0.678861
    157 H67         5.8800   -2.2610   -0.3810 hn        1 MOL      0.186621
    158 H68         6.4620   -4.0590   -2.4210 h1        1 MOL      0.091149
    159 H69         3.8840   -4.1230   -2.6980 hc        1 MOL      0.002782
    160 H70         3.8550   -3.0590   -1.2900 hc        1 MOL      0.002782
    161 H71         5.3940   -4.8850   -0.1360 hc        1 MOL      0.011692
    162 H72         4.9000   -5.9340   -1.4650 hc        1 MOL      0.011692
    163 N14         5.1500   -1.2200   -3.6830 n         1 MOL     -0.175212
    164 C55         4.7620   -0.5170   -4.9580 c3        1 MOL     -0.374015
    165 H73         4.5440    0.5290   -4.7430 h1        1 MOL      0.132097
    166 H74         5.5840   -0.5770   -5.6710 h1        1 MOL      0.132097
    167 H75         3.8770   -0.9930   -5.3810 h1        1 MOL      0.132097
    168 H76         5.1430   -0.6690   -2.8270 hn        1 MOL      0.238629
    169 Ca1         0.1010   -4.5800    0.2260 Ca        1 MOL      1.736441
    170 O24         0.4880   -3.8270    2.8800 oh        1 MOL     -0.858647
    171 H77        -0.0700   -4.2230    3.5650 ho        1 MOL      0.414131
    172 H78         1.0400   -3.2120    3.3610 ho        1 MOL      0.414131
    173 O25        -2.0280   -4.0340   -1.2860 oh        1 MOL     -0.858647
    174 H79        -1.8140   -4.1140   -2.2150 ho        1 MOL      0.414131
    175 H80        -2.9600   -3.8010   -1.2810 ho        1 MOL      0.414131
    176 O26        -0.2230   -6.3410   -1.7740 oh        1 MOL     -0.858647
    177 H81         0.6250   -6.6750   -2.0880 ho        1 MOL      0.414131
    178 H82        -0.6960   -6.1140   -2.5740 ho        1 MOL      0.414131
    179 O27        -0.0370   -7.0330    1.4870 oh        1 MOL     -0.858647
    180 H83        -0.0470   -7.9670    1.3150 ho        1 MOL      0.414131
    181 H84        -0.8830   -6.8500    1.9040 ho        1 MOL      0.414131
@<TRIPOS>BOND
     1    1    2 1   
     2    1    4 1   
     3    1    5 1   
     4    1    6 1   
     5    2    3 2   
     6    2    7 1   
     7    7    8 1   
     8    7   15 1   
     9    8    9 1   
    10    8   11 1   
    11    8   16 1   
    12    9   10 2   
    13    9   19 1   
    14   11   12 1   
    15   11   17 1   
    16   11   18 1   
    17   12   13 1   
    18   12   14 1   
    19   19   20 1   
    20   19   24 1   
    21   20   21 1   
    22   20   23 1   
    23   20   25 1   
    24   21   22 2   
    25   21   29 1   
    26   23   26 1   
    27   23   27 1   
    28   23   28 1   
    29   29   30 1   
    30   29   37 1   
    31   30   31 1   
    32   30   33 1   
    33   30   38 1   
    34   31   32 2   
    35   31   41 1   
    36   33   34 1   
    37   33   39 1   
    38   33   40 1   
    39   34   35 1   
    40   34   36 1   
    41   41   42 1   
    42   41   45 1   
    43   42   43 1   
    44   42   46 1   
    45   42   47 1   
    46   43   44 2   
    47   43   48 1   
    48   48   49 1   
    49   48   56 1   
    50   49   50 1   
    51   49   52 1   
    52   49   57 1   
    53   50   51 2   
    54   50   62 1   
    55   52   53 1   
    56   52   58 1   
    57   52   59 1   
    58   53   54 1   
    59   53   55 2   
    60   54   60 1   
    61   54   61 1   
    62   62   63 1   
    63   62   66 1   
    64   63   64 1   
    65   63   67 1   
    66   63   68 1   
    67   64   65 2   
    68   64   69 1   
    69   69   70 1   
    70   69   76 1   
    71   70   71 1   
    72   70   73 1   
    73   70   77 1   
    74   71   72 2   
    75   71   83 1   
    76   73   74 1   
    77   73   75 1   
    78   73   78 1   
    79   74   80 1   
    80   74   81 1   
    81   74   82 1   
    82   75   79 1   
    83   83   84 1   
    84   83   91 1   
    85   84   85 1   
    86   84   87 1   
    87   84   92 1   
    88   85   86 2   
    89   85  102 1   
    90   87   88 1   
    91   87   89 1   
    92   87   93 1   
    93   88   90 1   
    94   88   94 1   
    95   88   95 1   
    96   89   96 1   
    97   89   97 1   
    98   89   98 1   
    99   90   99 1   
   100   90  100 1   
   101   90  101 1   
   102  102  103 1   
   103  102  110 1   
   104  103  104 1   
   105  103  106 1   
   106  103  111 1   
   107  104  105 2   
   108  104  114 1   
   109  106  107 1   
   110  106  112 1   
   111  106  113 1   
   112  107  108 1   
   113  107  109 1   
   114  114  115 1   
   115  114  125 1   
   116  115  116 1   
   117  115  118 1   
   118  115  126 1   
   119  116  117 2   
   120  116  134 1   
   121  118  119 1   
   122  118  127 1   
   123  118  128 1   
   124  119  120 ar  
   125  119  121 ar  
   126  120  122 ar  
   127  120  129 1   
   128  121  123 ar  
   129  121  130 1   
   130  122  124 ar  
   131  122  131 1   
   132  123  124 ar  
   133  123  132 1   
   134  124  133 1   
   135  134  135 1   
   136  134  140 1   
   137  135  136 1   
   138  135  138 1   
   139  135  141 1   
   140  136  137 2   
   141  136  148 1   
   142  138  139 1   
   143  138  142 1   
   144  138  143 1   
   145  139  140 1   
   146  139  144 1   
   147  139  145 1   
   148  140  146 1   
   149  140  147 1   
   150  148  149 1   
   151  148  157 1   
   152  149  150 1   
   153  149  152 1   
   154  149  158 1   
   155  150  151 2   
   156  150  163 1   
   157  152  153 1   
   158  152  159 1   
   159  152  160 1   
   160  153  154 1   
   161  153  161 1   
   162  153  162 1   
   163  154  155 1   
   164  154  156 1   
   165  163  164 1   
   166  163  168 1   
   167  164  165 1   
   168  164  166 1   
   169  164  167 1   
   170  170  171 1   
   171  170  172 1   
   172  173  174 1   
   173  173  175 1   
   174  176  177 1   
   175  176  178 1   
   176  179  180 1   
   177  179  181 1   
@<TRIPOS>SUBSTRUCTURE
     1 MOL         1 TEMP              0 ****  ****    0 ROOT
