@<TRIPOS>MOLECULE
MOL
  195   189     1     0     0
SMALL
resp


@<TRIPOS>ATOM
      1 C1          4.4020    4.7370   -3.3740 c3        1 MOL     -0.421132
      2 C2          4.8780    4.1140   -2.0210 c         1 MOL      0.696030
      3 O1          4.1080    3.6830   -1.1500 o         1 MOL     -0.490840
      4 H1          3.3130    4.7770   -3.3910 hc        1 MOL      0.112847
      5 H2          4.8040    5.7460   -3.4710 hc        1 MOL      0.112847
      6 H3          4.7560    4.1230   -4.2020 hc        1 MOL      0.112847
      7 N1          6.2120    3.8400   -1.8830 n         1 MOL     -0.731693
      8 C3          6.8600    2.9050   -0.9640 c3        1 MOL      0.499150
      9 C4          6.2440    1.5310   -0.8770 c         1 MOL      0.315124
     10 O2          6.1440    0.8790    0.1790 o         1 MOL     -0.487863
     11 C5          7.1700    3.5740    0.3990 c3        1 MOL     -0.540528
     12 C6          5.9210    4.2680    0.9490 c         1 MOL      1.020665
     13 O3          5.0430    3.6800    1.5690 o         1 MOL     -0.832270
     14 O4          5.8570    5.5160    0.9440 o         1 MOL     -0.832270
     15 H4          6.7720    4.0710   -2.6870 hn        1 MOL      0.316613
     16 H5          7.8030    2.7090   -1.4560 h1        1 MOL      0.008262
     17 H6          7.9500    4.3270    0.2620 hc        1 MOL      0.128962
     18 H7          7.3770    2.8060    1.1440 hc        1 MOL      0.128962
     19 N2          5.8720    0.9990   -2.0790 n         1 MOL     -0.474940
     20 C7          5.3580   -0.3710   -2.4200 c3        1 MOL      0.106193
     21 C8          6.2750   -1.5320   -2.0460 c         1 MOL      0.442631
     22 O5          6.6920   -2.1670   -2.9510 o         1 MOL     -0.557055
     23 C9          3.9250   -0.5620   -1.9260 c3        1 MOL      0.166672
     24 C10         3.3480   -1.9210   -2.3070 c3        1 MOL     -0.029108
     25 C11         2.8880    0.4330   -2.4850 c3        1 MOL     -0.208279
     26 C12         3.2180   -2.4230   -3.7050 c3        1 MOL     -0.192398
     27 H8          6.0430    1.6240   -2.8480 hn        1 MOL      0.259895
     28 H9          5.1840   -0.4170   -3.4980 h1        1 MOL      0.036014
     29 H10         3.9860   -0.5440   -0.8310 hc        1 MOL     -0.150225
     30 H11         2.3840   -2.0470   -1.8150 hc        1 MOL      0.048292
     31 H12         3.9280   -2.7400   -1.8730 hc        1 MOL      0.048292
     32 H13         1.8280    0.2360   -2.3020 hc        1 MOL      0.040022
     33 H14         3.0530    1.4160   -2.0270 hc        1 MOL      0.040022
     34 H15         2.9620    0.4790   -3.5630 hc        1 MOL      0.040022
     35 H16         2.4860   -1.8390   -4.2630 hc        1 MOL      0.035636
     36 H17         4.1910   -2.2920   -4.1770 hc        1 MOL      0.035636
     37 H18         2.9150   -3.4640   -3.7630 hc        1 MOL      0.035636
     38 N3          6.5740   -1.7700   -0.7820 n         1 MOL     -0.148163
     39 C13         7.4000   -2.9370   -0.3520 c3        1 MOL     -0.095058
     40 C14         6.8060   -4.3560   -0.1210 c         1 MOL      0.594933
     41 O6          7.5730   -5.3420   -0.1880 o         1 MOL     -0.576695
     42 C15         8.1980   -2.6360    0.9560 c3        1 MOL     -0.190678
     43 C16         9.1400   -1.3980    0.8200 c         1 MOL      0.705966
     44 O7          9.7930   -1.1970   -0.2440 o         1 MOL     -0.711578
     45 O8          9.2810   -0.6830    1.7930 o         1 MOL     -0.711578
     46 H19         6.5320   -0.9940   -0.1380 hn        1 MOL      0.298905
     47 H20         8.2960   -3.0130   -0.9650 h1        1 MOL      0.053053
     48 H21         8.8110   -3.4880    1.2280 hc        1 MOL      0.069317
     49 H22         7.5600   -2.4380    1.8130 hc        1 MOL      0.069317
     50 N4          5.4850   -4.5850    0.1220 n         1 MOL     -0.584889
     51 C17         4.5950   -3.7980    0.9430 c3        1 MOL      0.193541
     52 C18         4.7810   -3.9670    2.5150 c         1 MOL      0.458768
     53 O9          5.8940   -4.2020    2.9360 o         1 MOL     -0.538792
     54 H23         5.2240   -5.5460   -0.0150 hn        1 MOL      0.298866
     55 H24         3.5600   -4.0800    0.7720 h1        1 MOL     -0.000656
     56 H25         4.5510   -2.7400    0.6680 h1        1 MOL     -0.000656
     57 N5          3.7920   -3.7930    3.3330 n         1 MOL     -0.421066
     58 C19         2.4320   -3.3560    2.9890 c3        1 MOL     -0.013218
     59 C20         2.4800   -1.8930    2.5440 c         1 MOL      0.692683
     60 O10         3.4280   -1.2000    2.8540 o         1 MOL     -0.517734
     61 C21         1.4950   -3.6550    4.1710 c3        1 MOL     -0.290909
     62 C22         1.9540   -3.1520    5.4930 c         1 MOL      0.712554
     63 O11         1.4800   -2.0730    5.9450 o         1 MOL     -0.706442
     64 O12         2.8050   -3.8490    6.1030 o         1 MOL     -0.706442
     65 H26         3.9890   -3.9430    4.3090 hn        1 MOL      0.296520
     66 H27         2.0920   -3.9440    2.1390 h1        1 MOL      0.072079
     67 H28         1.4080   -4.7270    4.2940 hc        1 MOL      0.054752
     68 H29         0.4930   -3.2570    3.9890 hc        1 MOL      0.054752
     69 N6          1.5270   -1.4310    1.7900 n         1 MOL     -0.503584
     70 C23         0.2370   -2.0450    1.3660 c3        1 MOL     -0.089227
     71 C24         0.3760   -3.0100    0.1130 c         1 MOL      0.523109
     72 O13         1.4910   -3.4270   -0.2550 o         1 MOL     -0.476270
     73 H30         1.6770   -0.4660    1.5380 hn        1 MOL      0.392716
     74 H31        -0.5280   -1.2790    1.2650 h1        1 MOL      0.097279
     75 H32        -0.1540   -2.6970    2.1580 h1        1 MOL      0.097279
     76 N7         -0.8090   -3.3320   -0.4460 n         1 MOL     -0.485427
     77 C25        -0.9930   -4.3090   -1.5700 c3        1 MOL      0.188117
     78 C26        -1.5430   -3.6380   -2.8760 c         1 MOL      0.479915
     79 O14        -1.5550   -4.3490   -3.9060 o         1 MOL     -0.534462
     80 C27        -1.7780   -5.4790   -1.0550 c3        1 MOL      0.024724
     81 C28        -3.2210   -5.2040   -0.6500 c3        1 MOL     -0.010567
     82 C29        -3.9830   -6.3910   -0.0320 c         1 MOL      0.532978
     83 N8         -5.2790   -6.2920    0.0990 n         1 MOL     -0.633608
     84 O15        -3.4400   -7.3470    0.5110 o         1 MOL     -0.548130
     85 H33        -1.6790   -3.0150   -0.0290 hn        1 MOL      0.239949
     86 H34        -0.0150   -4.7180   -1.8130 h1        1 MOL      0.061570
     87 H35        -1.3540   -5.9620   -0.1780 hc        1 MOL     -0.002926
     88 H36        -1.7750   -6.2320   -1.8510 hc        1 MOL     -0.002926
     89 H37        -3.8230   -4.8360   -1.4820 hc        1 MOL      0.008740
     90 H38        -3.2020   -4.4150    0.1050 hc        1 MOL      0.008740
     91 H39        -5.7450   -5.5310   -0.3860 hn        1 MOL      0.294115
     92 H40        -5.7710   -7.1730    0.0940 hn        1 MOL      0.294115
     93 N9         -2.1480   -2.4530   -2.7990 n         1 MOL     -0.458382
     94 C30        -2.8100   -1.8450   -3.8800 c3        1 MOL      0.016788
     95 C31        -4.1330   -1.2360   -3.4390 c         1 MOL      0.703589
     96 O16        -4.3270   -0.0230   -3.3950 o         1 MOL     -0.529068
     97 C32        -1.9270   -0.7580   -4.5280 c3        1 MOL      0.321689
     98 C33        -2.4970   -0.2330   -5.8480 c3        1 MOL     -0.501964
     99 C34        -0.5130   -1.1820   -4.8690 c3        1 MOL     -0.501964
    100 H41        -2.0780   -1.9470   -1.9330 hn        1 MOL      0.267993
    101 H42        -3.0180   -2.5750   -4.6570 h1        1 MOL      0.045937
    102 H43        -1.7850    0.1070   -3.8680 hc        1 MOL      0.004454
    103 H44        -2.4380   -1.0020   -6.6220 hc        1 MOL      0.120200
    104 H45        -3.4940    0.1600   -5.6820 hc        1 MOL      0.120200
    105 H46        -1.9240    0.6320   -6.1640 hc        1 MOL      0.120200
    106 H47        -0.5220   -2.1420   -5.3840 hc        1 MOL      0.120200
    107 H48        -0.0600   -0.4000   -5.4830 hc        1 MOL      0.120200
    108 H49         0.0200   -1.3870   -3.9390 hc        1 MOL      0.120200
    109 N10        -5.0930   -2.1240   -3.1370 n         1 MOL     -0.783463
    110 C35        -6.5150   -1.7540   -3.0360 c3        1 MOL      0.262999
    111 C36        -6.8690   -0.7810   -1.8630 c         1 MOL      0.338635
    112 O17        -8.0330   -0.3540   -1.7770 o         1 MOL     -0.542247
    113 C37        -7.3240   -3.0510   -2.9390 c3        1 MOL     -0.531961
    114 C38        -7.4280   -3.7590   -1.5560 c         1 MOL      0.752136
    115 N11        -8.5680   -4.1890   -1.1780 n         1 MOL     -0.763897
    116 O18        -6.4560   -4.0050   -0.8420 o         1 MOL     -0.600029
    117 H50        -5.0340   -3.1170   -3.3040 hn        1 MOL      0.410841
    118 H51        -6.6960   -1.1770   -3.9460 h1        1 MOL      0.076806
    119 H52        -6.9680   -3.8030   -3.6420 hc        1 MOL      0.141537
    120 H53        -8.3660   -2.7900   -3.1680 hc        1 MOL      0.141537
    121 H54        -9.4000   -4.1090   -1.7580 hn        1 MOL      0.361861
    122 H55        -8.6820   -4.7370   -0.3410 hn        1 MOL      0.361861
    123 N12        -5.9200   -0.3130   -1.0670 n         1 MOL     -0.171279
    124 C39        -6.2390    0.3830    0.1680 c3        1 MOL      0.105886
    125 C40        -5.1650    1.5280    0.2760 c         1 MOL      0.306864
    126 O19        -3.8980    1.3440    0.3460 o         1 MOL     -0.498529
    127 C41        -6.2230   -0.6360    1.2590 c3        1 MOL     -0.409645
    128 C42        -6.6080   -0.2010    2.6860 ca        1 MOL      0.294679
    129 C43        -5.6890    0.0880    3.6360 ca        1 MOL     -0.288396
    130 C44        -7.9760   -0.3770    3.0090 ca        1 MOL     -0.288396
    131 C45        -6.0690    0.4880    4.9170 ca        1 MOL     -0.215766
    132 C46        -8.3820   -0.0360    4.2780 ca        1 MOL     -0.215766
    133 C47        -7.4220    0.4900    5.2040 ca        1 MOL      0.396935
    134 O20        -7.8810    0.9920    6.3560 oh        1 MOL     -0.631455
    135 H56        -5.0520   -0.8120   -1.2280 hn        1 MOL      0.223293
    136 H57        -7.2490    0.7950    0.1290 h1        1 MOL      0.070400
    137 H58        -5.2320   -1.0610    1.3680 hc        1 MOL      0.150845
    138 H59        -6.7670   -1.5290    0.9430 hc        1 MOL      0.150845
    139 H60        -4.6330    0.1160    3.3990 ha        1 MOL      0.156691
    140 H61        -8.6100   -0.7430    2.2100 ha        1 MOL      0.156691
    141 H62        -5.3320    0.9690    5.5470 ha        1 MOL      0.138474
    142 H63        -9.4130   -0.1210    4.5820 ha        1 MOL      0.138474
    143 H64        -7.2260    1.5370    6.7890 ho        1 MOL      0.468421
    144 N13        -5.6780    2.7650    0.3700 n         1 MOL     -0.474745
    145 C48        -5.1200    4.0920    0.6820 c3        1 MOL     -0.039807
    146 C49        -3.8400    4.4550   -0.1180 c         1 MOL      0.389311
    147 O21        -3.1670    5.4370    0.1040 o         1 MOL     -0.496758
    148 C50        -5.1150    4.1720    2.2160 c3        1 MOL      0.226205
    149 C51        -4.0610    3.2330    2.8900 c3        1 MOL     -0.429734
    150 C52        -3.9030    3.5150    4.3930 c         1 MOL      0.759378
    151 O22        -4.7970    4.1330    5.0860 o         1 MOL     -0.728124
    152 O23        -2.9000    3.0070    5.0300 o         1 MOL     -0.728124
    153 H65        -6.6810    2.7650    0.4230 hn        1 MOL      0.323976
    154 H66        -5.8940    4.7740    0.3340 h1        1 MOL      0.054263
    155 H67        -6.1090    3.9880    2.6410 hc        1 MOL     -0.044125
    156 H68        -4.8430    5.1240    2.6600 hc        1 MOL     -0.044125
    157 H69        -3.1280    3.3730    2.3470 hc        1 MOL      0.141114
    158 H70        -4.4400    2.2300    2.6710 hc        1 MOL      0.141114
    159 N14        -3.5250    3.6550   -1.1470 n         1 MOL     -0.094902
    160 C53        -2.2490    3.7960   -1.8590 c3        1 MOL     -0.506108
    161 C54        -2.3260    4.6390   -3.1760 c         1 MOL      0.512464
    162 O24        -1.3800    5.1980   -3.6640 o         1 MOL     -0.474565
    163 C55        -1.7700    2.3480   -2.0840 c3        1 MOL      0.140085
    164 C56        -0.2930    2.1820   -2.4820 c3        1 MOL     -0.023490
    165 C57         0.5660    2.6860   -1.2670 c         1 MOL      0.709498
    166 O25         1.1780    3.7380   -1.3160 o         1 MOL     -0.775075
    167 O26         0.6790    1.9860   -0.2500 o         1 MOL     -0.775075
    168 H71        -4.2600    3.0450   -1.4860 hn        1 MOL      0.226792
    169 H72        -1.5430    4.3060   -1.2120 h1        1 MOL      0.299164
    170 H73        -2.3790    1.8250   -2.8190 hc        1 MOL     -0.001370
    171 H74        -1.9440    1.6470   -1.2730 hc        1 MOL     -0.001370
    172 H75        -0.0490    2.8830   -3.2760 hc        1 MOL      0.010701
    173 H76        -0.0440    1.1440   -2.6830 hc        1 MOL      0.010701
    174 N15        -3.5910    4.7850   -3.6700 n         1 MOL     -0.198169
    175 C58        -3.9990    5.6440   -4.7490 c3        1 MOL     -0.311038
    176 H77        -5.0490    5.4620   -4.9810 h1        1 MOL      0.111818
    177 H78        -3.8690    6.6860   -4.4540 h1        1 MOL      0.111818
    178 H79        -3.3910    5.4360   -5.6300 h1        1 MOL      0.111818
    179 H80        -4.3440    4.3340   -3.1780 hn        1 MOL      0.196906
    180 Ca1         2.4450    3.4980    0.9230 Ca        1 MOL      1.786519
    181 O27         3.7710    1.1160    1.3810 oh        1 MOL     -0.819025
    182 H81         4.5340    1.0670    0.8000 ho        1 MOL      0.401569
    183 H82         3.9010    0.3960    1.9940 ho        1 MOL      0.401569
    184 O28         2.5710    6.1320    0.5570 oh        1 MOL     -0.819025
    185 H83         3.2020    6.7550    0.2130 ho        1 MOL      0.401569
    186 H84         2.2140    6.5540    1.3440 ho        1 MOL      0.401569
    187 O29         2.8020    4.4030    3.5200 oh        1 MOL     -0.819025
    188 H85         2.1540    4.5720    4.2060 ho        1 MOL      0.401569
    189 H86         3.5800    4.9070    3.7910 ho        1 MOL      0.401569
    190 O30         1.0840    1.5520    2.4720 oh        1 MOL     -0.819025
    191 H87         1.1130    1.2890    3.3910 ho        1 MOL      0.401569
    192 H88         0.1580    1.6610    2.2750 ho        1 MOL      0.401569
    193 O31         0.2950    4.9060    1.7360 oh        1 MOL     -0.819025
    194 H89         0.0290    4.6170    2.6040 ho        1 MOL      0.401569
    195 H90        -0.5160    5.1710    1.3130 ho        1 MOL      0.401569
@<TRIPOS>BOND
     1    1    2 1   
     2    1    4 1   
     3    1    5 1   
     4    1    6 1   
     5    2    3 2   
     6    2    7 1   
     7    7    8 1   
     8    7   15 1   
     9    8    9 1   
    10    8   11 1   
    11    8   16 1   
    12    9   10 2   
    13    9   19 1   
    14   11   12 1   
    15   11   17 1   
    16   11   18 1   
    17   12   13 1   
    18   12   14 1   
    19   19   20 1   
    20   19   27 1   
    21   20   21 1   
    22   20   23 1   
    23   20   28 1   
    24   21   22 2   
    25   21   38 1   
    26   23   24 1   
    27   23   25 1   
    28   23   29 1   
    29   24   26 1   
    30   24   30 1   
    31   24   31 1   
    32   25   32 1   
    33   25   33 1   
    34   25   34 1   
    35   26   35 1   
    36   26   36 1   
    37   26   37 1   
    38   38   39 1   
    39   38   46 1   
    40   39   40 1   
    41   39   42 1   
    42   39   47 1   
    43   40   41 2   
    44   40   50 1   
    45   42   43 1   
    46   42   48 1   
    47   42   49 1   
    48   43   44 1   
    49   43   45 1   
    50   50   51 1   
    51   50   54 1   
    52   51   52 1   
    53   51   55 1   
    54   51   56 1   
    55   52   53 2   
    56   52   57 1   
    57   57   58 1   
    58   57   65 1   
    59   58   59 1   
    60   58   61 1   
    61   58   66 1   
    62   59   60 2   
    63   59   69 1   
    64   61   62 1   
    65   61   67 1   
    66   61   68 1   
    67   62   63 1   
    68   62   64 1   
    69   69   70 1   
    70   69   73 1   
    71   70   71 1   
    72   70   74 1   
    73   70   75 1   
    74   71   72 2   
    75   71   76 1   
    76   76   77 1   
    77   76   85 1   
    78   77   78 1   
    79   77   80 1   
    80   77   86 1   
    81   78   79 2   
    82   78   93 1   
    83   80   81 1   
    84   80   87 1   
    85   80   88 1   
    86   81   82 1   
    87   81   89 1   
    88   81   90 1   
    89   82   83 1   
    90   82   84 2   
    91   83   91 1   
    92   83   92 1   
    93   93   94 1   
    94   93  100 1   
    95   94   95 1   
    96   94   97 1   
    97   94  101 1   
    98   95   96 2   
    99   95  109 1   
   100   97   98 1   
   101   97   99 1   
   102   97  102 1   
   103   98  103 1   
   104   98  104 1   
   105   98  105 1   
   106   99  106 1   
   107   99  107 1   
   108   99  108 1   
   109  109  110 1   
   110  109  117 1   
   111  110  111 1   
   112  110  113 1   
   113  110  118 1   
   114  111  112 2   
   115  111  123 1   
   116  113  114 1   
   117  113  119 1   
   118  113  120 1   
   119  114  115 1   
   120  114  116 2   
   121  115  121 1   
   122  115  122 1   
   123  123  124 1   
   124  123  135 1   
   125  124  125 1   
   126  124  127 1   
   127  124  136 1   
   128  125  126 2   
   129  125  144 1   
   130  127  128 1   
   131  127  137 1   
   132  127  138 1   
   133  128  129 ar  
   134  128  130 ar  
   135  129  131 ar  
   136  129  139 1   
   137  130  132 ar  
   138  130  140 1   
   139  131  133 ar  
   140  131  141 1   
   141  132  133 ar  
   142  132  142 1   
   143  133  134 1   
   144  134  143 1   
   145  144  145 1   
   146  144  153 1   
   147  145  146 1   
   148  145  148 1   
   149  145  154 1   
   150  146  147 2   
   151  146  159 1   
   152  148  149 1   
   153  148  155 1   
   154  148  156 1   
   155  149  150 1   
   156  149  157 1   
   157  149  158 1   
   158  150  151 1   
   159  150  152 1   
   160  159  160 1   
   161  159  168 1   
   162  160  161 1   
   163  160  163 1   
   164  160  169 1   
   165  161  162 2   
   166  161  174 1   
   167  163  164 1   
   168  163  170 1   
   169  163  171 1   
   170  164  165 1   
   171  164  172 1   
   172  164  173 1   
   173  165  166 1   
   174  165  167 1   
   175  174  175 1   
   176  174  179 1   
   177  175  176 1   
   178  175  177 1   
   179  175  178 1   
   180  181  182 1   
   181  181  183 1   
   182  184  185 1   
   183  184  186 1   
   184  187  188 1   
   185  187  189 1   
   186  190  191 1   
   187  190  192 1   
   188  193  194 1   
   189  193  195 1   
@<TRIPOS>SUBSTRUCTURE
     1 MOL         1 TEMP              0 ****  ****    0 ROOT
