@<TRIPOS>MOLECULE
MOL
  195   189     1     0     0
SMALL
resp


@<TRIPOS>ATOM
      1 C1          0.8350    3.5990    3.2420 c3        1 MOL     -0.303807
      2 C2         -0.1540    3.8990    2.0740 c         1 MOL      0.790981
      3 O1         -0.7580    2.9240    1.5400 o         1 MOL     -0.568864
      4 H1          1.4720    4.4670    3.4110 hc        1 MOL      0.053656
      5 H2          0.2700    3.3820    4.1490 hc        1 MOL      0.053656
      6 H3          1.4530    2.7390    2.9840 hc        1 MOL      0.053656
      7 N1         -0.2330    5.1680    1.6150 n         1 MOL     -0.432254
      8 C3         -1.0140    5.4810    0.4170 c3        1 MOL     -0.084339
      9 C4         -2.4490    4.8990    0.5150 c         1 MOL      1.012649
     10 O2         -2.9570    4.2250   -0.3550 o         1 MOL     -0.664859
     11 C5         -0.3500    5.1080   -0.9150 c3        1 MOL     -0.197410
     12 C6          1.0990    5.5270   -1.1460 c         1 MOL      0.736383
     13 O3          1.5160    6.6210   -0.7380 o         1 MOL     -0.770979
     14 O4          2.0010    4.7650   -1.5560 o         1 MOL     -0.770979
     15 H4          0.3420    5.9210    1.9510 hn        1 MOL      0.244735
     16 H5         -1.1950    6.5550    0.3450 h1        1 MOL      0.035700
     17 H6         -0.9880    5.5600   -1.6800 hc        1 MOL      0.084627
     18 H7         -0.4340    4.0330   -1.0780 hc        1 MOL      0.084627
     19 N2         -3.1520    5.2290    1.5720 n         1 MOL     -0.827815
     20 C7         -4.5520    4.7090    1.7450 c3        1 MOL      0.041953
     21 C8         -5.5320    5.6320    0.9160 c         1 MOL      0.542414
     22 O5         -5.3100    6.8020    0.6910 o         1 MOL     -0.590521
     23 C9         -4.9730    4.6800    3.2390 c3        1 MOL      0.057926
     24 C10        -5.2580    6.1430    3.7360 c3        1 MOL      0.121737
     25 C11        -4.0920    3.8340    4.2030 c3        1 MOL     -0.047862
     26 C12        -5.8080    6.1770    5.1490 c3        1 MOL     -0.387546
     27 H8         -2.7610    5.8420    2.2750 hn        1 MOL      0.303837
     28 H9         -4.5980    3.6510    1.4970 h1        1 MOL      0.151017
     29 H10        -5.9690    4.2570    3.2900 hc        1 MOL      0.027164
     30 H11        -6.0050    6.6400    3.1230 hc        1 MOL      0.011310
     31 H12        -4.3930    6.8090    3.7070 hc        1 MOL      0.011310
     32 H13        -3.1450    4.3470    4.3570 hc        1 MOL     -0.004914
     33 H14        -4.5460    3.8620    5.1940 hc        1 MOL     -0.004914
     34 H15        -3.9470    2.8590    3.7420 hc        1 MOL     -0.004914
     35 H16        -6.4610    5.3090    5.2210 hc        1 MOL      0.084635
     36 H17        -5.0370    6.0090    5.9030 hc        1 MOL      0.084635
     37 H18        -6.4100    7.0740    5.2970 hc        1 MOL      0.084635
     38 N3         -6.6400    5.0990    0.4780 n         1 MOL     -0.504804
     39 C13        -7.1700    3.7310    0.5680 c3        1 MOL      0.144024
     40 C14        -6.4390    2.7310   -0.3060 c         1 MOL      0.620020
     41 O6         -6.2030    1.6590    0.1810 o         1 MOL     -0.632402
     42 C15        -8.6700    3.7330    0.3150 c3        1 MOL     -0.353853
     43 C16        -9.1850    4.3660   -1.0240 c         1 MOL      0.673465
     44 O7         -8.4090    5.0820   -1.7110 o         1 MOL     -0.686558
     45 O8        -10.4160    4.2780   -1.3150 o         1 MOL     -0.686558
     46 H19        -7.2000    5.6790   -0.1410 hn        1 MOL      0.307060
     47 H20        -7.0680    3.3890    1.5900 h1        1 MOL      0.002838
     48 H21        -9.1670    4.3490    1.0610 hc        1 MOL      0.087008
     49 H22        -9.0860    2.7510    0.5170 hc        1 MOL      0.087008
     50 N4         -6.1220    3.0810   -1.5610 n         1 MOL     -0.262629
     51 C17        -5.2160    2.2810   -2.3900 c3        1 MOL     -0.286873
     52 C18        -5.9030    1.0190   -2.8380 c         1 MOL      0.685702
     53 O9         -7.0640    1.0450   -3.3140 o         1 MOL     -0.582665
     54 H23        -6.4690    3.9800   -1.8680 hn        1 MOL      0.258578
     55 H24        -4.3550    1.8910   -1.8520 h1        1 MOL      0.136992
     56 H25        -4.8620    2.8870   -3.2270 h1        1 MOL      0.136992
     57 N5         -5.2010   -0.1120   -2.7390 n         1 MOL     -0.711391
     58 C19        -5.7620   -1.4380   -3.1960 c3        1 MOL      0.369242
     59 C20        -6.2610   -2.2850   -1.9930 c         1 MOL      0.417595
     60 O10        -7.1300   -3.0980   -2.2230 o         1 MOL     -0.576225
     61 C21        -4.7150   -2.2820   -4.0810 c3        1 MOL     -0.446084
     62 C22        -3.4660   -2.5600   -3.3280 c         1 MOL      0.810286
     63 O11        -2.4720   -1.7700   -3.4050 o         1 MOL     -0.719753
     64 O12        -3.3620   -3.4870   -2.5490 o         1 MOL     -0.719753
     65 H26        -4.2790   -0.0540   -2.3340 hn        1 MOL      0.338349
     66 H27        -6.6560   -1.4240   -3.8230 h1        1 MOL      0.043373
     67 H28        -4.5730   -1.7800   -5.0450 hc        1 MOL      0.083678
     68 H29        -5.0470   -3.2750   -4.4170 hc        1 MOL      0.083678
     69 N6         -5.7560   -2.2200   -0.7880 n         1 MOL     -0.135096
     70 C23        -6.2590   -2.9680    0.3500 c3        1 MOL     -0.308072
     71 C24        -5.6440   -4.3550    0.5150 c         1 MOL      0.610389
     72 O13        -6.0340   -5.0940    1.4450 o         1 MOL     -0.623119
     73 H30        -4.8940   -1.7080   -0.6800 hn        1 MOL      0.253184
     74 H31        -7.3390   -3.1170    0.3230 h1        1 MOL      0.140868
     75 H32        -5.9940   -2.3540    1.2180 h1        1 MOL      0.140868
     76 N7         -4.6670   -4.6860   -0.3170 n         1 MOL     -0.305792
     77 C25        -3.8320   -5.8900   -0.3040 c3        1 MOL      0.285565
     78 C26        -3.3980   -6.5150    1.0090 c         1 MOL      0.288691
     79 O14        -3.2540   -7.7360    1.1300 o         1 MOL     -0.491818
     80 C27        -4.2770   -6.9470   -1.3110 c3        1 MOL     -0.004102
     81 C28        -4.5040   -6.3750   -2.7160 c3        1 MOL     -0.135709
     82 C29        -5.2700   -7.2510   -3.6470 c         1 MOL      0.625231
     83 N8         -6.0240   -6.6590   -4.6050 n         1 MOL     -0.779710
     84 O15        -5.1880   -8.4610   -3.5360 o         1 MOL     -0.571383
     85 H33        -4.4950   -3.9710   -1.0140 hn        1 MOL      0.121683
     86 H34        -2.9070   -5.5110   -0.7250 h1        1 MOL      0.049554
     87 H35        -5.2410   -7.3320   -0.9820 hc        1 MOL      0.017055
     88 H36        -3.5600   -7.7560   -1.3950 hc        1 MOL      0.017055
     89 H37        -3.6060   -5.9870   -3.1830 hc        1 MOL      0.054047
     90 H38        -5.1720   -5.5180   -2.6280 hc        1 MOL      0.054047
     91 H39        -6.0080   -5.6470   -4.6420 hn        1 MOL      0.341557
     92 H40        -6.3570   -7.1160   -5.4350 hn        1 MOL      0.341557
     93 N9         -3.0040   -5.6990    2.0440 n         1 MOL     -0.217001
     94 C30        -2.4560   -6.0010    3.3590 c3        1 MOL     -0.084765
     95 C31        -1.1590   -5.2130    3.6490 c         1 MOL      0.451498
     96 O16        -0.6530   -5.2970    4.7920 o         1 MOL     -0.585654
     97 C32        -3.4650   -5.7390    4.5140 c3        1 MOL      0.445251
     98 C33        -3.9980   -4.3300    4.5520 c3        1 MOL     -0.395928
     99 C34        -4.6650   -6.6310    4.4770 c3        1 MOL     -0.395928
    100 H41        -3.2840   -4.7370    1.9360 hn        1 MOL      0.198697
    101 H42        -2.2040   -7.0560    3.4710 h1        1 MOL      0.094365
    102 H43        -2.9890   -5.9800    5.4620 hc        1 MOL     -0.074898
    103 H44        -4.2750   -4.1090    5.5810 hc        1 MOL      0.084449
    104 H45        -3.1450   -3.6920    4.3260 hc        1 MOL      0.084449
    105 H46        -4.8090   -4.1380    3.8530 hc        1 MOL      0.084449
    106 H47        -4.3310   -7.6630    4.3880 hc        1 MOL      0.084449
    107 H48        -5.3000   -6.5040    5.3520 hc        1 MOL      0.084449
    108 H49        -5.3070   -6.3640    3.6430 hc        1 MOL      0.084449
    109 N10        -0.6130   -4.5340    2.6690 n         1 MOL     -0.295906
    110 C35         0.6460   -3.7630    2.6710 c3        1 MOL      0.097892
    111 C36         1.2740   -3.7980    1.2320 c         1 MOL      0.460008
    112 O17         0.6530   -4.0150    0.2270 o         1 MOL     -0.466038
    113 C37         0.2050   -2.3040    3.0490 c3        1 MOL     -0.106007
    114 C38         1.4320   -1.3750    3.2750 c         1 MOL      0.580185
    115 N11         1.4850   -0.8430    4.5000 n         1 MOL     -0.781180
    116 O18         2.0040   -0.8890    2.3610 o         1 MOL     -0.496254
    117 H50        -1.1610   -4.5080    1.8200 hn        1 MOL      0.147136
    118 H51         1.3370   -4.0900    3.4470 h1        1 MOL      0.054316
    119 H52        -0.4220   -2.1900    3.9240 hc        1 MOL      0.064699
    120 H53        -0.3920   -1.9170    2.2290 hc        1 MOL      0.064699
    121 H54         1.0020   -1.2700    5.2790 hn        1 MOL      0.350461
    122 H55         2.0960   -0.0470    4.6480 hn        1 MOL      0.350461
    123 N12         2.5190   -3.3600    1.1600 n         1 MOL     -0.412534
    124 C39         3.4440   -3.3740   -0.0290 c3        1 MOL     -0.020121
    125 C40         4.8790   -2.9460    0.4740 c         1 MOL      0.603646
    126 O19         4.9910   -2.2710    1.4520 o         1 MOL     -0.491874
    127 C41         2.9940   -2.2480   -1.0540 c3        1 MOL     -0.155517
    128 C42         3.7120   -2.1790   -2.4080 ca        1 MOL      0.032061
    129 C43         4.7860   -1.2530   -2.6160 ca        1 MOL     -0.148591
    130 C44         3.2530   -2.8830   -3.5640 ca        1 MOL     -0.148591
    131 C45         5.3140   -1.0950   -3.8990 ca        1 MOL     -0.199369
    132 C46         3.8020   -2.6710   -4.8120 ca        1 MOL     -0.199369
    133 C47         4.8930   -1.8100   -4.9900 ca        1 MOL      0.278471
    134 O20         5.4430   -1.7480   -6.2230 oh        1 MOL     -0.493744
    135 H56         2.9960   -3.1480    2.0180 hn        1 MOL      0.229785
    136 H57         3.4010   -4.3410   -0.5250 h1        1 MOL      0.101945
    137 H58         3.0500   -1.2640   -0.5890 hc        1 MOL      0.151847
    138 H59         1.9550   -2.3320   -1.3670 hc        1 MOL      0.151847
    139 H60         5.1780   -0.6920   -1.7660 ha        1 MOL      0.138568
    140 H61         2.5850   -3.7270   -3.4920 ha        1 MOL      0.138568
    141 H62         6.1380   -0.4250   -4.0900 ha        1 MOL      0.121090
    142 H63         3.5420   -3.3330   -5.6270 ha        1 MOL      0.121090
    143 H64         6.1920   -1.1470   -6.2070 ho        1 MOL      0.363748
    144 N13         5.9660   -3.1000   -0.3180 n         1 MOL     -0.820163
    145 C48         7.3140   -2.7250    0.1200 c3        1 MOL      0.564575
    146 C49         7.9760   -1.6730   -0.8680 c         1 MOL      0.504475
    147 O21         8.6200   -2.0930   -1.7950 o         1 MOL     -0.531869
    148 C50         8.0270   -4.0750    0.1900 c3        1 MOL      0.007469
    149 C51         9.3120   -3.9880    0.9420 c3        1 MOL     -0.343769
    150 C52        10.1910   -5.2890    0.8910 c         1 MOL      0.742486
    151 O22        10.5850   -5.7610   -0.2280 o         1 MOL     -0.711604
    152 O23        10.5750   -5.8220    1.9290 o         1 MOL     -0.711604
    153 H65         5.8750   -3.4710   -1.2490 hn        1 MOL      0.332897
    154 H66         7.3220   -2.3670    1.1510 h1        1 MOL     -0.034836
    155 H67         8.2600   -4.4160   -0.8230 hc        1 MOL      0.002231
    156 H68         7.3510   -4.7660    0.6920 hc        1 MOL      0.002231
    157 H69         9.0480   -3.7660    1.9740 hc        1 MOL      0.059074
    158 H70         9.8860   -3.1690    0.5040 hc        1 MOL      0.059074
    159 N14         7.9570   -0.3890   -0.6420 n         1 MOL     -0.625822
    160 C53         7.1000    0.2630    0.3600 c3        1 MOL     -0.082113
    161 C54         7.6040    0.2040    1.8790 c         1 MOL      0.515477
    162 O24         8.8460    0.2910    2.1130 o         1 MOL     -0.542591
    163 C55         6.8060    1.7790    0.0500 c3        1 MOL      0.411918
    164 C56         6.1890    2.0730   -1.2860 c3        1 MOL     -0.272895
    165 C57         5.6720    3.5770   -1.3020 c         1 MOL      0.813000
    166 O25         4.7670    3.9290   -2.0920 o         1 MOL     -0.736030
    167 O26         6.0940    4.4070   -0.4860 o         1 MOL     -0.736030
    168 H71         8.7030    0.1860   -1.0160 hn        1 MOL      0.376793
    169 H72         6.1430   -0.2500    0.2930 h1        1 MOL      0.054269
    170 H73         7.6880    2.3840    0.2700 hc        1 MOL     -0.133328
    171 H74         6.2230    2.3160    0.8030 hc        1 MOL     -0.133328
    172 H75         5.3490    1.4010   -1.4540 hc        1 MOL      0.030984
    173 H76         6.9390    2.1170   -2.0670 hc        1 MOL      0.030984
    174 N15         6.6310    0.1010    2.8110 n         1 MOL     -0.308348
    175 C58         6.9680   -0.0860    4.2390 c3        1 MOL     -0.042270
    176 H77         6.4220   -0.9440    4.6320 h1        1 MOL      0.049227
    177 H78         8.0400   -0.2600    4.3400 h1        1 MOL      0.049227
    178 H79         6.6910    0.8070    4.7980 h1        1 MOL      0.049227
    179 H80         5.6800   -0.0960    2.5350 hn        1 MOL      0.243102
    180 Ca1         4.2360    6.5140   -0.8380 Ca        1 MOL      1.775674
    181 O27         6.5990    6.8020   -2.4110 oh        1 MOL     -0.863836
    182 H81         7.5250    7.0400   -2.4540 ho        1 MOL      0.416747
    183 H82         6.3760    6.5580   -3.3140 ho        1 MOL      0.416747
    184 O28         3.9590    9.1620   -1.3160 oh        1 MOL     -0.863836
    185 H83         3.4190    9.8770   -0.9870 ho        1 MOL      0.416747
    186 H84         4.1920    9.4190   -2.2030 ho        1 MOL      0.416747
    187 O29         5.9210    7.7390    0.8840 oh        1 MOL     -0.863836
    188 H85         6.6530    8.2850    0.6270 ho        1 MOL      0.416747
    189 H86         6.1830    7.3510    1.7220 ho        1 MOL      0.416747
    190 O30         3.7390    4.4490    0.9960 oh        1 MOL     -0.863836
    191 H87         3.5210    3.5220    0.9110 ho        1 MOL      0.416747
    192 H88         4.6460    4.4500    1.2950 ho        1 MOL      0.416747
    193 O31         3.4640    6.3490   -3.4360 oh        1 MOL     -0.863836
    194 H89         2.5950    5.9660   -3.5210 ho        1 MOL      0.416747
    195 H90         3.8320    6.2980   -4.3160 ho        1 MOL      0.416747
@<TRIPOS>BOND
     1    1    2 1   
     2    1    4 1   
     3    1    5 1   
     4    1    6 1   
     5    2    3 2   
     6    2    7 1   
     7    7    8 1   
     8    7   15 1   
     9    8    9 1   
    10    8   11 1   
    11    8   16 1   
    12    9   10 2   
    13    9   19 1   
    14   11   12 1   
    15   11   17 1   
    16   11   18 1   
    17   12   13 1   
    18   12   14 1   
    19   19   20 1   
    20   19   27 1   
    21   20   21 1   
    22   20   23 1   
    23   20   28 1   
    24   21   22 2   
    25   21   38 1   
    26   23   24 1   
    27   23   25 1   
    28   23   29 1   
    29   24   26 1   
    30   24   30 1   
    31   24   31 1   
    32   25   32 1   
    33   25   33 1   
    34   25   34 1   
    35   26   35 1   
    36   26   36 1   
    37   26   37 1   
    38   38   39 1   
    39   38   46 1   
    40   39   40 1   
    41   39   42 1   
    42   39   47 1   
    43   40   41 2   
    44   40   50 1   
    45   42   43 1   
    46   42   48 1   
    47   42   49 1   
    48   43   44 1   
    49   43   45 1   
    50   50   51 1   
    51   50   54 1   
    52   51   52 1   
    53   51   55 1   
    54   51   56 1   
    55   52   53 2   
    56   52   57 1   
    57   57   58 1   
    58   57   65 1   
    59   58   59 1   
    60   58   61 1   
    61   58   66 1   
    62   59   60 2   
    63   59   69 1   
    64   61   62 1   
    65   61   67 1   
    66   61   68 1   
    67   62   63 1   
    68   62   64 1   
    69   69   70 1   
    70   69   73 1   
    71   70   71 1   
    72   70   74 1   
    73   70   75 1   
    74   71   72 2   
    75   71   76 1   
    76   76   77 1   
    77   76   85 1   
    78   77   78 1   
    79   77   80 1   
    80   77   86 1   
    81   78   79 2   
    82   78   93 1   
    83   80   81 1   
    84   80   87 1   
    85   80   88 1   
    86   81   82 1   
    87   81   89 1   
    88   81   90 1   
    89   82   83 1   
    90   82   84 2   
    91   83   91 1   
    92   83   92 1   
    93   93   94 1   
    94   93  100 1   
    95   94   95 1   
    96   94   97 1   
    97   94  101 1   
    98   95   96 2   
    99   95  109 1   
   100   97   98 1   
   101   97   99 1   
   102   97  102 1   
   103   98  103 1   
   104   98  104 1   
   105   98  105 1   
   106   99  106 1   
   107   99  107 1   
   108   99  108 1   
   109  109  110 1   
   110  109  117 1   
   111  110  111 1   
   112  110  113 1   
   113  110  118 1   
   114  111  112 2   
   115  111  123 1   
   116  113  114 1   
   117  113  119 1   
   118  113  120 1   
   119  114  115 1   
   120  114  116 2   
   121  115  121 1   
   122  115  122 1   
   123  123  124 1   
   124  123  135 1   
   125  124  125 1   
   126  124  127 1   
   127  124  136 1   
   128  125  126 2   
   129  125  144 1   
   130  127  128 1   
   131  127  137 1   
   132  127  138 1   
   133  128  129 ar  
   134  128  130 ar  
   135  129  131 ar  
   136  129  139 1   
   137  130  132 ar  
   138  130  140 1   
   139  131  133 ar  
   140  131  141 1   
   141  132  133 ar  
   142  132  142 1   
   143  133  134 1   
   144  134  143 1   
   145  144  145 1   
   146  144  153 1   
   147  145  146 1   
   148  145  148 1   
   149  145  154 1   
   150  146  147 2   
   151  146  159 1   
   152  148  149 1   
   153  148  155 1   
   154  148  156 1   
   155  149  150 1   
   156  149  157 1   
   157  149  158 1   
   158  150  151 1   
   159  150  152 1   
   160  159  160 1   
   161  159  168 1   
   162  160  161 1   
   163  160  163 1   
   164  160  169 1   
   165  161  162 2   
   166  161  174 1   
   167  163  164 1   
   168  163  170 1   
   169  163  171 1   
   170  164  165 1   
   171  164  172 1   
   172  164  173 1   
   173  165  166 1   
   174  165  167 1   
   175  174  175 1   
   176  174  179 1   
   177  175  176 1   
   178  175  177 1   
   179  175  178 1   
   180  181  182 1   
   181  181  183 1   
   182  184  185 1   
   183  184  186 1   
   184  187  188 1   
   185  187  189 1   
   186  190  191 1   
   187  190  192 1   
   188  193  194 1   
   189  193  195 1   
@<TRIPOS>SUBSTRUCTURE
     1 MOL         1 TEMP              0 ****  ****    0 ROOT
