@<TRIPOS>MOLECULE
MOL
  188   182     1     0     0
SMALL
resp


@<TRIPOS>ATOM
      1 C1          4.6980    2.4680    2.1350 c3        1 MOL     -0.341414
      2 C2          5.6180    2.6520    0.8620 c         1 MOL      0.631847
      3 O1          5.2010    2.0850   -0.1340 o         1 MOL     -0.431136
      4 H1          3.7820    3.0430    2.0060 hc        1 MOL      0.084375
      5 H2          4.4510    1.4130    2.2560 hc        1 MOL      0.084375
      6 H3          5.2270    2.8220    3.0200 hc        1 MOL      0.084375
      7 N1          6.7310    3.3880    0.7960 n         1 MOL     -0.479515
      8 C3          7.5970    3.3380   -0.3660 c3        1 MOL      0.033544
      9 C4          7.9610    1.8960   -0.8170 c         1 MOL      0.459951
     10 O2          8.2080    1.7030   -2.0240 o         1 MOL     -0.484292
     11 C5          7.0960    4.2270   -1.5520 c3        1 MOL     -0.197732
     12 C6          6.4750    5.5690   -1.2120 c         1 MOL      0.728546
     13 O3          6.8140    6.1520   -0.1840 o         1 MOL     -0.668303
     14 O4          5.5770    5.9960   -1.9490 o         1 MOL     -0.668303
     15 H4          7.1500    3.8700    1.5760 hn        1 MOL      0.302489
     16 H5          8.5390    3.7700   -0.0400 h1        1 MOL      0.081010
     17 H6          6.4720    3.7360   -2.3110 hc        1 MOL      0.058107
     18 H7          8.0250    4.5150   -2.0340 hc        1 MOL      0.058107
     19 N2          8.0640    0.9900    0.1890 n         1 MOL     -0.526630
     20 C7          8.2650   -0.4670   -0.0530 c3        1 MOL      0.268595
     21 C8          7.0700   -1.3790   -0.1250 c         1 MOL      0.531395
     22 O5          7.2040   -2.5320   -0.5980 o         1 MOL     -0.600970
     23 C9          9.2560   -0.9040    1.0120 c3        1 MOL     -0.130622
     24 C10        10.6760   -0.2590    0.9250 c3        1 MOL      0.102927
     25 C11        11.7360   -0.8630    1.8530 c3        1 MOL     -0.123280
     26 C12        12.0640   -2.3400    1.7280 c3        1 MOL     -0.015242
     27 N3         12.4980   -2.7780    0.4000 n4        1 MOL     -0.213021
     28 H8          7.6820    1.2990    1.0670 hn        1 MOL      0.251609
     29 H9          8.7230   -0.7170   -1.0040 h1        1 MOL      0.040048
     30 H10         9.3290   -1.9930    1.0190 hc        1 MOL      0.017241
     31 H11         8.7460   -0.5850    1.9250 hc        1 MOL      0.017241
     32 H12        10.5710    0.7760    1.2320 hc        1 MOL      0.000920
     33 H13        11.0030   -0.2900   -0.1150 hc        1 MOL      0.000920
     34 H14        11.3320   -0.7030    2.8490 hc        1 MOL      0.071837
     35 H15        12.6680   -0.3060    1.8280 hc        1 MOL      0.071837
     36 H16        11.1800   -2.9430    1.9360 hx        1 MOL      0.084012
     37 H17        12.7400   -2.6700    2.5190 hx        1 MOL      0.084012
     38 H18        11.7150   -2.6460   -0.2210 hn        1 MOL      0.245087
     39 H19        13.2610   -2.2300    0.0240 hn        1 MOL      0.245087
     40 H20        12.8610   -3.7300    0.4160 hn        1 MOL      0.245087
     41 N4          5.8930   -0.9020    0.3200 n         1 MOL     -0.502702
     42 C13         4.6360   -1.5970    0.2390 c3        1 MOL      0.206673
     43 C14         4.2060   -1.6940   -1.1910 c         1 MOL      0.631837
     44 O6          4.1370   -0.6310   -1.8030 o         1 MOL     -0.507982
     45 C15         3.5190   -1.0760    1.1270 c3        1 MOL     -0.300762
     46 C16         2.2450   -1.8650    1.2850 c         1 MOL      0.607041
     47 O7          1.3790   -1.5730    2.1440 o         1 MOL     -0.639896
     48 O8          2.0410   -2.8820    0.5300 o         1 MOL     -0.639896
     49 H21         5.8140    0.1020    0.4120 hn        1 MOL      0.234604
     50 H22         4.8770   -2.5890    0.6100 h1        1 MOL     -0.013154
     51 H23         3.2330   -0.1210    0.6730 hc        1 MOL      0.102931
     52 H24         3.9940   -0.9360    2.1000 hc        1 MOL      0.102931
     53 N5          3.7190   -2.8630   -1.5890 n         1 MOL     -0.389903
     54 C17         3.2390   -3.0300   -2.9140 c3        1 MOL      0.022471
     55 C18         2.0840   -2.1230   -3.3630 c         1 MOL      0.308133
     56 O9          2.0730   -1.6510   -4.5410 o         1 MOL     -0.503259
     57 H25         3.8200   -3.6840   -1.0200 hn        1 MOL      0.187390
     58 H26         2.9540   -4.0740   -3.0520 h1        1 MOL      0.060583
     59 H27         4.0700   -2.9290   -3.6200 h1        1 MOL      0.060583
     60 N6          1.1840   -1.7690   -2.3880 n         1 MOL     -0.088308
     61 C19         0.0430   -0.8830   -2.6540 c3        1 MOL      0.051690
     62 C20         0.4160    0.6110   -2.5310 c         1 MOL      0.521692
     63 O10        -0.4170    1.4060   -2.8190 o         1 MOL     -0.545541
     64 C21        -1.0900   -1.2670   -1.7760 c3        1 MOL     -0.205513
     65 C22        -1.4910   -2.7390   -1.9300 c         1 MOL      0.478783
     66 N7         -2.5620   -3.1210   -2.7050 n         1 MOL     -0.689089
     67 O11        -0.8680   -3.5950   -1.2930 o         1 MOL     -0.513119
     68 H28         1.3740   -2.1250   -1.4640 hn        1 MOL      0.029973
     69 H29        -0.2920   -1.0290   -3.6800 h1        1 MOL      0.059722
     70 H30        -1.9160   -0.6810   -2.1640 hc        1 MOL      0.122142
     71 H31        -0.8920   -1.1210   -0.7180 hc        1 MOL      0.122142
     72 H32        -2.8910   -2.5490   -3.4640 hn        1 MOL      0.354695
     73 H33        -2.7100   -4.1130   -2.7150 hn        1 MOL      0.354695
     74 N8          1.6100    0.9340   -2.0530 n         1 MOL     -0.333010
     75 C23         1.8780    2.3610   -1.6690 c3        1 MOL     -0.076168
     76 C24         0.8810    2.9460   -0.6120 c         1 MOL      0.692831
     77 O12         0.6500    2.3610    0.4240 o         1 MOL     -0.557021
     78 H34         2.2910    0.2180   -1.8260 hn        1 MOL      0.258722
     79 H35         1.8600    2.9330   -2.5990 h1        1 MOL      0.088102
     80 H36         2.8770    2.3800   -1.2310 h1        1 MOL      0.088102
     81 N9          0.3800    4.1950   -0.8600 n         1 MOL     -0.782042
     82 C25        -0.7110    4.9890   -0.2660 c3        1 MOL      0.472248
     83 C26        -2.0490    4.2110   -0.0950 c         1 MOL      0.298213
     84 O13        -3.1090    4.8300   -0.1740 o         1 MOL     -0.494334
     85 C27        -0.2540    5.6710    0.9860 c3        1 MOL     -0.097804
     86 C28        -1.1990    6.6080    1.7230 ca        1 MOL     -0.000004
     87 C29        -1.8700    7.6650    1.1280 ca        1 MOL     -0.190135
     88 C30        -1.3180    6.3440    3.1370 ca        1 MOL     -0.190135
     89 C31        -2.7000    8.4640    1.9430 ca        1 MOL     -0.169103
     90 C32        -2.2540    7.0660    3.8950 ca        1 MOL     -0.169103
     91 C33        -2.9650    8.1400    3.2870 ca        1 MOL      0.260291
     92 O14        -3.7990    8.9340    4.0600 oh        1 MOL     -0.480107
     93 H37         0.8440    4.7200   -1.5870 hn        1 MOL      0.362203
     94 H38        -0.8800    5.7990   -0.9790 h1        1 MOL     -0.005884
     95 H39         0.6900    6.1550    0.7380 hc        1 MOL      0.066278
     96 H40         0.0110    4.9020    1.7080 hc        1 MOL      0.066278
     97 H41        -1.6560    7.9120    0.1020 ha        1 MOL      0.146491
     98 H42        -0.6360    5.6130    3.5660 ha        1 MOL      0.146491
     99 H43        -3.1610    9.3600    1.5480 ha        1 MOL      0.125029
    100 H44        -2.0530    6.9090    4.9410 ha        1 MOL      0.125029
    101 H45        -3.7600    8.6600    4.9850 ho        1 MOL      0.356075
    102 N10        -2.0230    2.8930    0.2400 n         1 MOL     -0.381961
    103 C34        -3.1300    1.9200    0.4970 c3        1 MOL      0.072276
    104 C35        -4.0010    1.5840   -0.6820 c         1 MOL      0.333749
    105 O15        -4.2880    0.3530   -0.9490 o         1 MOL     -0.568794
    106 C36        -3.9720    2.2650    1.7650 c3        1 MOL      0.352858
    107 C37        -3.0150    2.4480    2.9550 c3        1 MOL     -0.162040
    108 C38        -4.9420    1.1810    2.0670 c3        1 MOL     -0.303113
    109 C39        -3.5190    2.7230    4.3820 c3        1 MOL     -0.055979
    110 H46        -1.1060    2.4870    0.1770 hn        1 MOL      0.257749
    111 H47        -2.6440    0.9690    0.7040 h1        1 MOL      0.047100
    112 H48        -4.5210    3.1820    1.5960 hc        1 MOL     -0.045805
    113 H49        -2.4260    3.3530    2.7990 hc        1 MOL      0.047274
    114 H50        -2.3840    1.5600    2.9660 hc        1 MOL      0.047274
    115 H51        -5.6230    1.4640    2.8590 hc        1 MOL      0.083702
    116 H52        -5.6450    1.1580    1.2310 hc        1 MOL      0.083702
    117 H53        -4.4060    0.2490    2.2630 hc        1 MOL      0.083702
    118 H54        -4.0150    1.8410    4.7680 hc        1 MOL      0.007887
    119 H55        -2.7090    3.0580    5.0320 hc        1 MOL      0.007887
    120 H56        -4.2960    3.4830    4.3520 hc        1 MOL      0.007887
    121 N11        -4.4330    2.5720   -1.4570 n         1 MOL     -0.133103
    122 C40        -5.2000    2.2850   -2.6860 c3        1 MOL      0.030130
    123 C41        -6.6750    1.8600   -2.4630 c         1 MOL      0.263258
    124 O16        -7.3660    1.3710   -3.3830 o         1 MOL     -0.463429
    125 C42        -5.0980    3.5770   -3.5680 c3        1 MOL      0.176606
    126 O17        -3.8690    3.6990   -4.3680 oh        1 MOL     -0.599449
    127 H57        -4.1920    3.5290   -1.2350 hn        1 MOL      0.185975
    128 H58        -4.8350    1.3880   -3.1820 h1        1 MOL      0.150964
    129 H59        -5.1330    4.4830   -2.9740 h1        1 MOL      0.022957
    130 H60        -5.9990    3.6420   -4.1730 h1        1 MOL      0.022957
    131 H61        -3.8100    4.6290   -4.5940 ho        1 MOL      0.396396
    132 N12        -7.2090    2.0560   -1.2440 n         1 MOL     -0.202030
    133 C43        -8.4730    1.4740   -0.6980 c3        1 MOL      0.337857
    134 C44        -8.6140    0.0070   -0.9580 c         1 MOL      0.459422
    135 O18        -9.6180   -0.4970   -1.4250 o         1 MOL     -0.521338
    136 C45        -9.7020    2.2310   -1.2300 c3        1 MOL     -0.451288
    137 H62        -6.7230    2.6420   -0.5730 hn        1 MOL      0.133292
    138 H63        -8.4520    1.5120    0.3910 h1        1 MOL      0.005063
    139 H64       -10.5200    1.8940   -0.5760 hc        1 MOL      0.116583
    140 H65        -9.4620    3.2840   -1.1270 hc        1 MOL      0.116583
    141 H66        -9.9210    1.9570   -2.2580 hc        1 MOL      0.116583
    142 N13        -7.4860   -0.6580   -0.6930 n         1 MOL     -0.446612
    143 C46        -7.3100   -2.0690   -1.0030 c3        1 MOL      0.362936
    144 C47        -6.4430   -2.6950    0.0690 c         1 MOL      0.407103
    145 O19        -5.8050   -1.9140    0.8710 o         1 MOL     -0.466034
    146 C48        -6.6910   -2.0870   -2.4280 c3        1 MOL     -0.376156
    147 H67        -6.7020   -0.1500   -0.3170 hn        1 MOL      0.108351
    148 H68        -8.2580   -2.6020   -1.0170 h1        1 MOL     -0.007308
    149 H69        -6.5030   -3.1090   -2.7520 hc        1 MOL      0.105692
    150 H70        -7.3250   -1.5310   -3.1200 hc        1 MOL      0.105692
    151 H71        -5.7030   -1.6300   -2.4190 hc        1 MOL      0.105692
    152 N14        -6.4480   -3.9800    0.1900 n         1 MOL     -0.486492
    153 C49        -5.6670   -4.8570    1.0700 c3        1 MOL     -0.004170
    154 C50        -5.8830   -4.8080    2.5670 c         1 MOL      0.409837
    155 O20        -5.0930   -5.1190    3.3970 o         1 MOL     -0.447179
    156 C51        -4.1900   -4.7420    0.6500 c3        1 MOL      0.161555
    157 C52        -3.6030   -6.1930    0.7380 c3        1 MOL     -0.217420
    158 C53        -2.0960   -6.0920    0.7890 c         1 MOL      0.749950
    159 O21        -1.4920   -5.9700    1.8700 o         1 MOL     -0.749477
    160 O22        -1.5640   -6.1070   -0.3420 o         1 MOL     -0.749477
    161 H72        -6.9690   -4.4970   -0.4970 hn        1 MOL      0.302872
    162 H73        -5.9920   -5.8540    0.7600 h1        1 MOL      0.050051
    163 H74        -3.7470   -3.9610    1.2620 hc        1 MOL      0.014806
    164 H75        -4.0190   -4.3990   -0.3680 hc        1 MOL      0.014806
    165 H76        -3.8990   -6.6280   -0.2120 hc        1 MOL      0.028954
    166 H77        -3.9430   -6.8080    1.5820 hc        1 MOL      0.028954
    167 N15        -7.0920   -4.2490    2.8970 n         1 MOL     -0.261192
    168 C54        -7.3280   -3.6660    4.1610 c3        1 MOL     -0.072065
    169 H78        -7.9280   -2.7630    4.0380 h1        1 MOL      0.061122
    170 H79        -7.8630   -4.3740    4.7940 h1        1 MOL      0.061122
    171 H80        -6.3770   -3.4080    4.6260 h1        1 MOL      0.061122
    172 H81        -7.7160   -4.1270    2.1130 hn        1 MOL      0.215359
    173 Ca1         0.5640   -4.9240    0.6840 Ca        1 MOL      1.778913
    174 O23         1.1770   -7.5220    1.1930 oh        1 MOL     -0.847671
    175 H82         0.6480   -8.2920    1.3860 ho        1 MOL      0.421447
    176 H83         2.0780   -7.8310    1.2340 ho        1 MOL      0.421447
    177 O24         1.6430   -5.8210   -1.6090 oh        1 MOL     -0.847671
    178 H84         1.2760   -6.1380   -2.4390 ho        1 MOL      0.421447
    179 H85         2.5590   -6.0910   -1.6220 ho        1 MOL      0.421447
    180 O25         1.5330   -4.7690    3.4010 oh        1 MOL     -0.847671
    181 H86         2.1120   -5.2030    4.0310 ho        1 MOL      0.421447
    182 H87         1.3520   -3.9170    3.7930 ho        1 MOL      0.421447
    183 O26         3.5110   -5.6200    0.9850 oh        1 MOL     -0.847671
    184 H88         4.0250   -5.3140    1.7320 ho        1 MOL      0.421447
    185 H89         4.1480   -5.6940    0.2680 ho        1 MOL      0.421447
    186 O27        -1.0770   -2.9250    1.6500 oh        1 MOL     -0.847671
    187 H90        -1.7200   -2.4420    1.1300 ho        1 MOL      0.421447
    188 H91        -0.6160   -2.2510    2.1570 ho        1 MOL      0.421447
@<TRIPOS>BOND
     1    1    2 1   
     2    1    4 1   
     3    1    5 1   
     4    1    6 1   
     5    2    3 2   
     6    2    7 1   
     7    7    8 1   
     8    7   15 1   
     9    8    9 1   
    10    8   11 1   
    11    8   16 1   
    12    9   10 2   
    13    9   19 1   
    14   11   12 1   
    15   11   17 1   
    16   11   18 1   
    17   12   13 1   
    18   12   14 1   
    19   19   20 1   
    20   19   28 1   
    21   20   21 1   
    22   20   23 1   
    23   20   29 1   
    24   21   22 2   
    25   21   41 1   
    26   23   24 1   
    27   23   30 1   
    28   23   31 1   
    29   24   25 1   
    30   24   32 1   
    31   24   33 1   
    32   25   26 1   
    33   25   34 1   
    34   25   35 1   
    35   26   27 1   
    36   26   36 1   
    37   26   37 1   
    38   27   38 1   
    39   27   39 1   
    40   27   40 1   
    41   41   42 1   
    42   41   49 1   
    43   42   43 1   
    44   42   45 1   
    45   42   50 1   
    46   43   44 2   
    47   43   53 1   
    48   45   46 1   
    49   45   51 1   
    50   45   52 1   
    51   46   47 1   
    52   46   48 1   
    53   53   54 1   
    54   53   57 1   
    55   54   55 1   
    56   54   58 1   
    57   54   59 1   
    58   55   56 2   
    59   55   60 1   
    60   60   61 1   
    61   60   68 1   
    62   61   62 1   
    63   61   64 1   
    64   61   69 1   
    65   62   63 2   
    66   62   74 1   
    67   64   65 1   
    68   64   70 1   
    69   64   71 1   
    70   65   66 1   
    71   65   67 2   
    72   66   72 1   
    73   66   73 1   
    74   74   75 1   
    75   74   78 1   
    76   75   76 1   
    77   75   79 1   
    78   75   80 1   
    79   76   77 2   
    80   76   81 1   
    81   81   82 1   
    82   81   93 1   
    83   82   83 1   
    84   82   85 1   
    85   82   94 1   
    86   83   84 2   
    87   83  102 1   
    88   85   86 1   
    89   85   95 1   
    90   85   96 1   
    91   86   87 ar  
    92   86   88 ar  
    93   87   89 ar  
    94   87   97 1   
    95   88   90 ar  
    96   88   98 1   
    97   89   91 ar  
    98   89   99 1   
    99   90   91 ar  
   100   90  100 1   
   101   91   92 1   
   102   92  101 1   
   103  102  103 1   
   104  102  110 1   
   105  103  104 1   
   106  103  106 1   
   107  103  111 1   
   108  104  105 2   
   109  104  121 1   
   110  106  107 1   
   111  106  108 1   
   112  106  112 1   
   113  107  109 1   
   114  107  113 1   
   115  107  114 1   
   116  108  115 1   
   117  108  116 1   
   118  108  117 1   
   119  109  118 1   
   120  109  119 1   
   121  109  120 1   
   122  121  122 1   
   123  121  127 1   
   124  122  123 1   
   125  122  125 1   
   126  122  128 1   
   127  123  124 2   
   128  123  132 1   
   129  125  126 1   
   130  125  129 1   
   131  125  130 1   
   132  126  131 1   
   133  132  133 1   
   134  132  137 1   
   135  133  134 1   
   136  133  136 1   
   137  133  138 1   
   138  134  135 2   
   139  134  142 1   
   140  136  139 1   
   141  136  140 1   
   142  136  141 1   
   143  142  143 1   
   144  142  147 1   
   145  143  144 1   
   146  143  146 1   
   147  143  148 1   
   148  144  145 2   
   149  144  152 1   
   150  146  149 1   
   151  146  150 1   
   152  146  151 1   
   153  152  153 1   
   154  152  161 1   
   155  153  154 1   
   156  153  156 1   
   157  153  162 1   
   158  154  155 2   
   159  154  167 1   
   160  156  157 1   
   161  156  163 1   
   162  156  164 1   
   163  157  158 1   
   164  157  165 1   
   165  157  166 1   
   166  158  159 1   
   167  158  160 1   
   168  167  168 1   
   169  167  172 1   
   170  168  169 1   
   171  168  170 1   
   172  168  171 1   
   173  174  175 1   
   174  174  176 1   
   175  177  178 1   
   176  177  179 1   
   177  180  181 1   
   178  180  182 1   
   179  183  184 1   
   180  183  185 1   
   181  186  187 1   
   182  186  188 1   
@<TRIPOS>SUBSTRUCTURE
     1 MOL         1 TEMP              0 ****  ****    0 ROOT
