@<TRIPOS>MOLECULE
MOL
  178   175     1     0     0
SMALL
resp


@<TRIPOS>ATOM
      1 C1          2.4770   -0.9810    5.2450 c3        1 MOL     -0.242191
      2 C2          3.4040   -0.3730    4.2080 c         1 MOL      0.586510
      3 O1          3.0720    0.5550    3.4480 o         1 MOL     -0.556601
      4 H1          2.9630   -0.9630    6.2210 hc        1 MOL      0.054692
      5 H2          1.5530   -0.4040    5.2900 hc        1 MOL      0.054692
      6 H3          2.2500   -2.0110    4.9720 hc        1 MOL      0.054692
      7 N1          4.6080   -0.8870    4.2330 n         1 MOL     -0.392011
      8 C3          5.7820   -0.4790    3.3960 c3        1 MOL      0.047968
      9 C4          5.9670   -1.3400    2.0990 c         1 MOL      0.550217
     10 O2          6.9290   -1.0510    1.3140 o         1 MOL     -0.492025
     11 C5          6.9160   -0.4500    4.4590 c3        1 MOL     -0.104858
     12 C6          8.2510    0.0500    3.8490 c         1 MOL      0.686242
     13 O3          8.4000    1.3040    3.7020 o         1 MOL     -0.722068
     14 O4          9.1880   -0.7720    3.6540 o         1 MOL     -0.722068
     15 H4          4.8300   -1.6510    4.8640 hn        1 MOL      0.243970
     16 H5          5.5900    0.5530    3.1100 h1        1 MOL      0.085196
     17 H6          7.0830   -1.4430    4.8780 hc        1 MOL     -0.007238
     18 H7          6.7140    0.1970    5.3150 hc        1 MOL     -0.007238
     19 N2          5.2720   -2.4680    1.9390 n         1 MOL     -0.623368
     20 C7          5.2690   -3.4620    0.7800 c3        1 MOL      0.403493
     21 C8          4.9960   -2.7370   -0.5990 c         1 MOL      0.447081
     22 O5          3.9480   -3.0590   -1.1990 o         1 MOL     -0.673866
     23 C9          6.5240   -4.2960    0.8160 c3        1 MOL     -0.151068
     24 H8          4.5930   -2.6550    2.6590 hn        1 MOL      0.295941
     25 H9          4.4730   -4.1900    0.9020 h1        1 MOL     -0.009336
     26 H10         6.6880   -4.8260    1.7530 hc        1 MOL      0.047047
     27 H11         6.4390   -5.0930    0.0850 hc        1 MOL      0.047047
     28 H12         7.4170   -3.7340    0.5400 hc        1 MOL      0.047047
     29 N3          5.7470   -1.6980   -0.9940 n         1 MOL     -0.267641
     30 C10         5.5660   -1.0630   -2.2340 c3        1 MOL     -0.042152
     31 C11         5.8540    0.4400   -2.1700 c         1 MOL      0.627614
     32 O6          6.0240    1.0490   -3.2140 o         1 MOL     -0.566835
     33 C12         6.4680   -1.6120   -3.3940 c3        1 MOL     -0.393244
     34 C13         6.6000   -3.1640   -3.3740 c         1 MOL      0.869207
     35 O7          7.6200   -3.6890   -2.9430 o         1 MOL     -0.752285
     36 O8          5.6870   -3.8820   -3.8250 o         1 MOL     -0.752285
     37 H13         6.4450   -1.3560   -0.3420 hn        1 MOL      0.248508
     38 H14         4.5040   -1.0550   -2.4430 h1        1 MOL      0.148677
     39 H15         7.4860   -1.2450   -3.2850 hc        1 MOL      0.067085
     40 H16         6.1000   -1.3400   -4.3840 hc        1 MOL      0.067085
     41 N4          5.8640    1.0360   -0.9950 n         1 MOL     -0.320680
     42 C14         5.8550    2.5200   -0.8270 c3        1 MOL      0.020386
     43 C15         4.5950    3.2090   -1.3230 c         1 MOL      0.527210
     44 O9          4.6430    4.3880   -1.7330 o         1 MOL     -0.538959
     45 H17         5.7890    0.4740   -0.1530 hn        1 MOL      0.169068
     46 H18         6.6790    2.9730   -1.3940 h1        1 MOL      0.060032
     47 H19         6.1120    2.8290    0.1860 h1        1 MOL      0.060032
     48 N5          3.4790    2.4290   -1.4210 n         1 MOL     -0.335885
     49 C16         2.2590    2.8180   -2.1680 c3        1 MOL     -0.259396
     50 C17         1.7560    4.1690   -1.6900 c         1 MOL      0.474078
     51 O10         1.6870    4.4030   -0.4490 o         1 MOL     -0.496716
     52 C18         1.1850    1.6600   -2.0660 c3        1 MOL     -0.142666
     53 C19         1.6170    0.4850   -2.9290 c         1 MOL      0.556388
     54 N6          1.8300    0.7830   -4.2170 n         1 MOL     -0.690230
     55 O11         1.9980   -0.6180   -2.4360 o         1 MOL     -0.654171
     56 H20         3.5000    1.5510   -0.9300 hn        1 MOL      0.284518
     57 H21         2.6040    2.9330   -3.1840 h1        1 MOL      0.130113
     58 H22         0.2330    2.0680   -2.4140 hc        1 MOL      0.154498
     59 H23         1.1260    1.3190   -1.0330 hc        1 MOL      0.154498
     60 H24         1.4650    1.6150   -4.6380 hn        1 MOL      0.335325
     61 H25         2.3470    0.0800   -4.7260 hn        1 MOL      0.335325
     62 N7          1.5280    5.1260   -2.5380 n         1 MOL     -0.208413
     63 C20         1.2270    6.5040   -2.2550 c3        1 MOL     -0.230066
     64 C21        -0.2880    6.6290   -2.0060 c         1 MOL      0.610926
     65 O12        -1.0860    6.1030   -2.7880 o         1 MOL     -0.542301
     66 H26         1.5610    4.9430   -3.5330 hn        1 MOL      0.235730
     67 H27         1.4640    7.1540   -3.0960 h1        1 MOL      0.123577
     68 H28         1.7060    6.9120   -1.3770 h1        1 MOL      0.123577
     69 N8         -0.6220    7.3720   -0.9410 n         1 MOL     -0.596389
     70 C22        -2.0200    7.7090   -0.5430 c3        1 MOL     -0.034186
     71 C23        -2.8210    6.5910    0.1560 c         1 MOL      0.408740
     72 O13        -3.9560    6.7820    0.5320 o         1 MOL     -0.539726
     73 C24        -2.0120    9.0180    0.1870 c3        1 MOL      0.454241
     74 C25        -1.5070    8.8410    1.6380 c3        1 MOL     -0.380537
     75 O14        -1.2820    9.9900   -0.5440 oh        1 MOL     -0.609635
     76 H29         0.1540    7.8110   -0.4860 hn        1 MOL      0.298244
     77 H30        -2.4900    7.9150   -1.4990 h1        1 MOL      0.123623
     78 H31        -3.0960    9.1530    0.1480 h1        1 MOL      0.005996
     79 H32        -0.4040    9.6180   -0.4250 ho        1 MOL      0.370602
     80 H33        -0.7670    8.0470    1.7200 hc        1 MOL      0.088632
     81 H34        -0.9440    9.7090    1.9840 hc        1 MOL      0.088632
     82 H35        -2.3420    8.5800    2.2710 hc        1 MOL      0.088632
     83 N9         -2.2160    5.4320    0.4370 n         1 MOL     -0.109244
     84 C26        -2.7670    4.2130    1.0680 c3        1 MOL      0.026571
     85 C27        -2.3910    2.9360    0.2970 c         1 MOL      0.423874
     86 O15        -1.5660    3.0440   -0.6250 o         1 MOL     -0.456201
     87 C28        -2.2670    4.0630    2.5730 c3        1 MOL      0.031024
     88 C29        -0.7920    3.7240    2.6060 c3        1 MOL     -0.131256
     89 C30        -2.5180    5.2370    3.4910 c3        1 MOL     -0.181576
     90 C31        -0.2940    3.3290    3.9710 c3        1 MOL     -0.293474
     91 H36        -1.2870    5.2560    0.0770 hn        1 MOL      0.109155
     92 H37        -3.8530    4.2600    0.9770 h1        1 MOL      0.063302
     93 H38        -2.9510    3.2970    2.9450 hc        1 MOL      0.008831
     94 H39        -0.2330    4.5560    2.1900 hc        1 MOL      0.126142
     95 H40        -0.5800    2.9120    1.9160 hc        1 MOL      0.126142
     96 H41        -3.5760    5.4750    3.3750 hc        1 MOL      0.049557
     97 H42        -2.3350    5.1160    4.5590 hc        1 MOL      0.049557
     98 H43        -1.8830    6.0300    3.0900 hc        1 MOL      0.049557
     99 H44        -1.0410    2.6560    4.4010 hc        1 MOL      0.088130
    100 H45         0.6380    2.7900    3.8230 hc        1 MOL      0.088130
    101 H46        -0.1620    4.1690    4.6560 hc        1 MOL      0.088130
    102 N10        -2.8070    1.7260    0.6920 n         1 MOL     -0.540616
    103 C32        -2.3510    0.4230    0.0060 c3        1 MOL      0.110912
    104 C33        -3.4910   -0.6030   -0.2400 c         1 MOL      0.421778
    105 O16        -3.3020   -1.7880   -0.1790 o         1 MOL     -0.350697
    106 C34        -1.1800   -0.3120    0.7390 c3        1 MOL      0.005069
    107 C35        -0.2470   -1.1860   -0.1120 c         1 MOL      0.427657
    108 O17         0.9150   -1.5000    0.2770 o         1 MOL     -0.655376
    109 O18        -0.6620   -1.6110   -1.2090 o         1 MOL     -0.655376
    110 H47        -3.5490    1.6670    1.3690 hn        1 MOL      0.288509
    111 H48        -2.0180    0.7050   -0.9920 h1        1 MOL      0.068006
    112 H49        -1.6900   -0.8270    1.5540 hc        1 MOL      0.027002
    113 H50        -0.5940    0.5170    1.1230 hc        1 MOL      0.027002
    114 N11        -4.7090    0.0080   -0.3630 n         1 MOL     -0.484113
    115 C36        -5.9090   -0.7230   -0.7030 c3        1 MOL      0.342706
    116 C37        -6.1140   -1.8580    0.3010 c         1 MOL      0.039132
    117 O19        -6.3510   -1.6460    1.5240 o         1 MOL     -0.413252
    118 C38        -7.0430    0.2690   -0.7360 c3        1 MOL     -0.355348
    119 C39        -8.2700   -0.2830   -1.3070 ca        1 MOL      0.222267
    120 C40        -8.3460   -0.4280   -2.6930 ca        1 MOL     -0.225216
    121 C41        -9.3770   -0.6560   -0.5220 ca        1 MOL     -0.225216
    122 C42        -9.4460   -0.9450   -3.3030 ca        1 MOL     -0.077857
    123 C43       -10.5630   -1.1430   -1.1680 ca        1 MOL     -0.077857
    124 C44       -10.5830   -1.2990   -2.5680 ca        1 MOL     -0.142114
    125 H51        -4.6910    1.0070   -0.2240 hn        1 MOL      0.278075
    126 H52        -5.7840   -1.0610   -1.7330 h1        1 MOL     -0.019324
    127 H53        -6.8100    1.1740   -1.2880 hc        1 MOL      0.116943
    128 H54        -7.2100    0.5590    0.3040 hc        1 MOL      0.116943
    129 H55        -7.4670   -0.1460   -3.2500 ha        1 MOL      0.138998
    130 H56        -9.2810   -0.6470    0.5530 ha        1 MOL      0.138998
    131 H57        -9.4510   -1.0330   -4.3880 ha        1 MOL      0.100166
    132 H58       -11.4080   -1.5130   -0.6130 ha        1 MOL      0.100166
    133 H59       -11.4670   -1.6470   -3.0910 ha        1 MOL      0.105503
    134 N12        -6.1230   -3.1400   -0.1820 n         1 MOL      0.091799
    135 C45        -6.2060   -4.3980    0.6300 c3        1 MOL      0.133935
    136 C46        -5.1800   -4.4500    1.7980 c         1 MOL      0.202250
    137 O20        -5.5740   -4.8520    2.8880 o         1 MOL     -0.518914
    138 C47        -5.8950   -5.5530   -0.2970 c3        1 MOL     -0.006231
    139 C48        -6.4950   -5.0070   -1.5910 c3        1 MOL     -0.093664
    140 C49        -6.1000   -3.5610   -1.6030 c3        1 MOL     -0.022355
    141 H60        -7.2240   -4.4560    1.0050 h1        1 MOL      0.035772
    142 H61        -4.8340   -5.7520   -0.3950 hc        1 MOL      0.033126
    143 H62        -6.4170   -6.4730   -0.0390 hc        1 MOL      0.033126
    144 H63        -6.1390   -5.4910   -2.5010 hc        1 MOL      0.028747
    145 H64        -7.5780   -5.0020   -1.4600 hc        1 MOL      0.028747
    146 H65        -5.0890   -3.3260   -1.9320 h1        1 MOL      0.045924
    147 H66        -6.8980   -3.0520   -2.1350 h1        1 MOL      0.045924
    148 N13        -3.9250   -3.9850    1.6720 n         1 MOL     -0.041075
    149 C50        -2.9350   -3.9990    2.7040 c3        1 MOL     -0.028836
    150 C51        -3.1220   -2.8540    3.7360 c         1 MOL      0.405714
    151 O21        -2.4670   -2.9100    4.7880 o         1 MOL     -0.558539
    152 C52        -1.5270   -3.8830    2.0660 c3        1 MOL     -0.015724
    153 C53        -1.2080   -5.1500    1.2810 c3        1 MOL     -0.199735
    154 C54        -0.2490   -4.7980    0.1090 c         1 MOL      0.681371
    155 O22        -0.6630   -4.5740   -1.0610 o         1 MOL     -0.737038
    156 O23         1.0340   -4.6290    0.2350 o         1 MOL     -0.737038
    157 H67        -3.7240   -3.6490    0.7430 hn        1 MOL      0.152920
    158 H68        -3.0190   -4.8470    3.3860 h1        1 MOL      0.093965
    159 H69        -0.8690   -3.7590    2.9300 hc        1 MOL      0.064570
    160 H70        -1.4660   -3.0130    1.4260 hc        1 MOL      0.064570
    161 H71        -2.1270   -5.5640    0.8690 hc        1 MOL      0.030833
    162 H72        -0.7530   -5.9180    1.9170 hc        1 MOL      0.030833
    163 N14        -4.0560   -1.9160    3.5560 n         1 MOL     -0.049689
    164 C55        -4.4400   -0.8720    4.5040 c3        1 MOL     -0.343771
    165 H73        -3.5440   -0.4360    4.9450 h1        1 MOL      0.119828
    166 H74        -5.0020   -0.0960    3.9830 h1        1 MOL      0.119828
    167 H75        -5.0580   -1.3040    5.2900 h1        1 MOL      0.119828
    168 H76        -4.6750   -2.1130    2.7880 hn        1 MOL      0.142157
    169 Ca1         1.4100   -3.2000   -1.7950 Ca        1 MOL      1.782360
    170 O24        -0.0410   -3.5580   -4.0470 oh        1 MOL     -0.806586
    171 H77        -0.7610   -3.0590   -4.4300 ho        1 MOL      0.395019
    172 H78         0.3440   -4.0220   -4.7950 ho        1 MOL      0.395019
    173 O25         2.9960   -3.0610   -3.8670 oh        1 MOL     -0.806586
    174 H79         3.8580   -3.3500   -3.5540 ho        1 MOL      0.395019
    175 H80         3.1920   -2.4520   -4.5850 ho        1 MOL      0.395019
    176 O26         2.3450   -5.7250   -2.6040 oh        1 MOL     -0.806586
    177 H81         2.8390   -6.2730   -1.9960 ho        1 MOL      0.395019
    178 H82         2.5580   -6.0870   -3.4710 ho        1 MOL      0.395019
@<TRIPOS>BOND
     1    1    2 1   
     2    1    4 1   
     3    1    5 1   
     4    1    6 1   
     5    2    3 2   
     6    2    7 1   
     7    7    8 1   
     8    7   15 1   
     9    8    9 1   
    10    8   11 1   
    11    8   16 1   
    12    9   10 2   
    13    9   19 1   
    14   11   12 1   
    15   11   17 1   
    16   11   18 1   
    17   12   13 1   
    18   12   14 1   
    19   19   20 1   
    20   19   24 1   
    21   20   21 1   
    22   20   23 1   
    23   20   25 1   
    24   21   22 2   
    25   21   29 1   
    26   23   26 1   
    27   23   27 1   
    28   23   28 1   
    29   29   30 1   
    30   29   37 1   
    31   30   31 1   
    32   30   33 1   
    33   30   38 1   
    34   31   32 2   
    35   31   41 1   
    36   33   34 1   
    37   33   39 1   
    38   33   40 1   
    39   34   35 1   
    40   34   36 1   
    41   41   42 1   
    42   41   45 1   
    43   42   43 1   
    44   42   46 1   
    45   42   47 1   
    46   43   44 2   
    47   43   48 1   
    48   48   49 1   
    49   48   56 1   
    50   49   50 1   
    51   49   52 1   
    52   49   57 1   
    53   50   51 2   
    54   50   62 1   
    55   52   53 1   
    56   52   58 1   
    57   52   59 1   
    58   53   54 1   
    59   53   55 2   
    60   54   60 1   
    61   54   61 1   
    62   62   63 1   
    63   62   66 1   
    64   63   64 1   
    65   63   67 1   
    66   63   68 1   
    67   64   65 2   
    68   64   69 1   
    69   69   70 1   
    70   69   76 1   
    71   70   71 1   
    72   70   73 1   
    73   70   77 1   
    74   71   72 2   
    75   71   83 1   
    76   73   74 1   
    77   73   75 1   
    78   73   78 1   
    79   74   80 1   
    80   74   81 1   
    81   74   82 1   
    82   75   79 1   
    83   83   84 1   
    84   83   91 1   
    85   84   85 1   
    86   84   87 1   
    87   84   92 1   
    88   85   86 2   
    89   85  102 1   
    90   87   88 1   
    91   87   89 1   
    92   87   93 1   
    93   88   90 1   
    94   88   94 1   
    95   88   95 1   
    96   89   96 1   
    97   89   97 1   
    98   89   98 1   
    99   90   99 1   
   100   90  100 1   
   101   90  101 1   
   102  102  103 1   
   103  102  110 1   
   104  103  104 1   
   105  103  106 1   
   106  103  111 1   
   107  104  105 2   
   108  104  114 1   
   109  106  107 1   
   110  106  112 1   
   111  106  113 1   
   112  107  108 1   
   113  107  109 1   
   114  114  115 1   
   115  114  125 1   
   116  115  116 1   
   117  115  118 1   
   118  115  126 1   
   119  116  117 2   
   120  116  134 1   
   121  118  119 1   
   122  118  127 1   
   123  118  128 1   
   124  119  120 ar  
   125  119  121 ar  
   126  120  122 ar  
   127  120  129 1   
   128  121  123 ar  
   129  121  130 1   
   130  122  124 ar  
   131  122  131 1   
   132  123  124 ar  
   133  123  132 1   
   134  124  133 1   
   135  134  135 1   
   136  134  140 1   
   137  135  136 1   
   138  135  138 1   
   139  135  141 1   
   140  136  137 2   
   141  136  148 1   
   142  138  139 1   
   143  138  142 1   
   144  138  143 1   
   145  139  140 1   
   146  139  144 1   
   147  139  145 1   
   148  140  146 1   
   149  140  147 1   
   150  148  149 1   
   151  148  157 1   
   152  149  150 1   
   153  149  152 1   
   154  149  158 1   
   155  150  151 2   
   156  150  163 1   
   157  152  153 1   
   158  152  159 1   
   159  152  160 1   
   160  153  154 1   
   161  153  161 1   
   162  153  162 1   
   163  154  155 1   
   164  154  156 1   
   165  163  164 1   
   166  163  168 1   
   167  164  165 1   
   168  164  166 1   
   169  164  167 1   
   170  170  171 1   
   171  170  172 1   
   172  173  174 1   
   173  173  175 1   
   174  176  177 1   
   175  176  178 1   
@<TRIPOS>SUBSTRUCTURE
     1 MOL         1 TEMP              0 ****  ****    0 ROOT
