@<TRIPOS>MOLECULE
MOL
  192   187     1     0     0
SMALL
resp


@<TRIPOS>ATOM
      1 C1         -4.3870    6.9680   -3.2720 c3        1 MOL     -0.388727
      2 C2         -3.5770    5.9220   -2.4950 c         1 MOL      0.483656
      3 O1         -3.0040    4.9570   -3.0880 o         1 MOL     -0.520153
      4 H1         -4.3170    6.7620   -4.3400 hc        1 MOL      0.110690
      5 H2         -5.4320    6.9230   -2.9620 hc        1 MOL      0.110690
      6 H3         -3.9900    7.9620   -3.0680 hc        1 MOL      0.110690
      7 N1         -3.3410    6.1980   -1.1930 n         1 MOL     -0.256529
      8 C3         -2.4830    5.4550   -0.2200 c3        1 MOL     -0.169733
      9 C4         -3.2050    4.1830    0.3750 c         1 MOL      0.470483
     10 O2         -2.7700    3.5150    1.2670 o         1 MOL     -0.493510
     11 C5         -2.0280    6.3640    0.8770 c3        1 MOL     -0.151698
     12 C6         -3.2850    6.7150    1.6760 c         1 MOL      0.721035
     13 O3         -3.5550    6.1710    2.7370 o         1 MOL     -0.678625
     14 O4         -4.0570    7.5350    1.1230 o         1 MOL     -0.678625
     15 H4         -3.8730    6.9550   -0.7800 hn        1 MOL      0.193125
     16 H5         -1.5970    5.0620   -0.7040 h1        1 MOL      0.188411
     17 H6         -1.5960    7.2780    0.4610 hc        1 MOL      0.054493
     18 H7         -1.3030    5.8590    1.5160 hc        1 MOL      0.054493
     19 N2         -4.4210    3.8670   -0.1250 n         1 MOL     -0.333879
     20 C7         -5.2790    2.7120    0.1980 c3        1 MOL      0.106969
     21 C8         -5.4360    1.6170   -0.8460 c         1 MOL      0.552309
     22 O5         -5.6490    2.0030   -1.9500 o         1 MOL     -0.570027
     23 C9         -6.7740    3.2270    0.4180 c3        1 MOL     -0.012545
     24 C10        -7.0030    4.4790    1.3180 c3        1 MOL     -0.178844
     25 C11        -6.2740    4.3650    2.6640 c3        1 MOL     -0.255019
     26 C12        -6.6850    5.4480    3.6450 c3        1 MOL      0.032654
     27 N3         -6.1650    6.7390    3.1110 n4        1 MOL     -0.210426
     28 H8         -4.7200    4.4250   -0.9190 hn        1 MOL      0.238441
     29 H9         -4.9410    2.2590    1.1330 h1        1 MOL      0.028468
     30 H10        -7.3220    2.3850    0.8350 hc        1 MOL     -0.000640
     31 H11        -7.2260    3.4460   -0.5450 hc        1 MOL     -0.000640
     32 H12        -8.0740    4.6510    1.3980 hc        1 MOL      0.072052
     33 H13        -6.8190    5.4160    0.7970 hc        1 MOL      0.072052
     34 H14        -5.1910    4.3500    2.5550 hc        1 MOL      0.158265
     35 H15        -6.4440    3.4090    3.1670 hc        1 MOL      0.158265
     36 H16        -6.1100    5.2070    4.5370 hx        1 MOL      0.063460
     37 H17        -7.7570    5.4290    3.8380 hx        1 MOL      0.063460
     38 H18        -6.7850    6.9810    2.3450 hn        1 MOL      0.257996
     39 H19        -6.2190    7.5040    3.7660 hn        1 MOL      0.257996
     40 H20        -5.2210    6.6440    2.7710 hn        1 MOL      0.257996
     41 N4         -5.2510    0.3080   -0.6050 n         1 MOL     -0.099937
     42 C13        -4.9160   -0.3470    0.6730 c3        1 MOL      0.093260
     43 C14        -5.8840   -0.0120    1.8690 c         1 MOL      0.484692
     44 O6         -5.4610    0.5040    2.8120 o         1 MOL     -0.519536
     45 C15        -3.4480   -0.1060    0.9940 c3        1 MOL     -0.118343
     46 C16        -2.5110   -0.1480   -0.2620 c         1 MOL      0.364135
     47 O7         -1.7060    0.7670   -0.5900 o         1 MOL     -0.545860
     48 O8         -2.6650   -1.0460   -1.1360 o         1 MOL     -0.545860
     49 H21        -5.3150   -0.2790   -1.4200 hn        1 MOL      0.081114
     50 H22        -5.0110   -1.4210    0.5050 h1        1 MOL      0.100461
     51 H23        -3.1560   -0.9300    1.6420 hc        1 MOL      0.034397
     52 H24        -3.3210    0.8150    1.5660 hc        1 MOL      0.034397
     53 N5         -7.1790   -0.3110    1.8250 n         1 MOL     -0.500646
     54 C17        -7.9610   -0.9220    0.7790 c3        1 MOL      0.065361
     55 C18        -7.9150   -2.4910    0.7410 c         1 MOL      0.553383
     56 O9         -7.5440   -3.0510    1.7500 o         1 MOL     -0.542603
     57 H25        -7.5910   -0.2910    2.7410 hn        1 MOL      0.321692
     58 H26        -7.9950   -0.4170   -0.1950 h1        1 MOL      0.051867
     59 H27        -8.9580   -0.6540    1.1240 h1        1 MOL      0.051867
     60 N6         -8.0790   -3.2380   -0.3980 n         1 MOL     -0.582027
     61 C19        -8.0340   -2.6930   -1.7850 c3        1 MOL     -0.063950
     62 C20        -6.5790   -2.7750   -2.3180 c         1 MOL      0.484893
     63 O10        -6.1160   -1.8780   -3.0550 o         1 MOL     -0.531349
     64 C21        -8.9700   -3.4280   -2.7390 c3        1 MOL     -0.071056
     65 C22       -10.3360   -3.6410   -2.2080 c         1 MOL      0.703107
     66 O11       -10.9920   -4.5670   -2.6560 o         1 MOL     -0.641193
     67 O12       -10.8050   -2.7760   -1.4420 o         1 MOL     -0.641193
     68 H28        -8.0410   -4.2460   -0.3280 hn        1 MOL      0.361840
     69 H29        -8.4120   -1.6660   -1.7800 h1        1 MOL      0.122010
     70 H30        -8.4840   -4.3610   -3.0520 hc        1 MOL      0.018448
     71 H31        -8.9820   -2.8060   -3.6260 hc        1 MOL      0.018448
     72 N7         -5.9090   -3.8210   -1.8420 n         1 MOL     -0.359346
     73 C23        -4.4040   -3.9160   -1.7780 c3        1 MOL      0.180580
     74 C24        -3.6900   -4.2120   -0.4540 c         1 MOL      0.364822
     75 O13        -4.1920   -4.7950    0.4440 o         1 MOL     -0.496165
     76 H32        -6.3890   -4.4820   -1.2450 hn        1 MOL      0.248779
     77 H33        -3.9710   -3.0110   -2.1830 h1        1 MOL     -0.010184
     78 H34        -4.2340   -4.6280   -2.5790 h1        1 MOL     -0.010184
     79 N8         -2.4610   -3.8910   -0.4440 n         1 MOL     -0.407737
     80 C25        -1.5770   -3.9450    0.7320 c3        1 MOL      0.145047
     81 C26        -0.6660   -2.7470    0.9800 c         1 MOL      0.572058
     82 O14        -0.2600   -2.1700   -0.0430 o         1 MOL     -0.651596
     83 C27        -0.7980   -5.2850    0.5670 c3        1 MOL      0.252023
     84 C28        -0.3770   -5.8480    1.9060 c3        1 MOL     -0.059397
     85 O15         0.3270   -5.0990   -0.2580 oh        1 MOL     -0.569492
     86 H35        -2.1210   -3.4320   -1.2780 hn        1 MOL      0.167246
     87 H36        -2.2620   -4.0070    1.5720 h1        1 MOL      0.041794
     88 H37        -1.4510   -6.0630    0.1770 h1        1 MOL      0.035688
     89 H38        -0.0120   -5.0600   -1.1580 ho        1 MOL      0.341082
     90 H39         0.1970   -5.1460    2.4970 hc        1 MOL      0.007745
     91 H40        -1.3030   -6.0350    2.4390 hc        1 MOL      0.007745
     92 H41         0.0500   -6.8420    1.7490 hc        1 MOL      0.007745
     93 N9         -0.2580   -2.5880    2.2490 n         1 MOL     -0.421766
     94 C29         0.9220   -1.7500    2.6020 c3        1 MOL     -0.003275
     95 C30         2.2320   -2.6120    2.6930 c         1 MOL      0.944639
     96 O16         2.1000   -3.7150    3.2440 o         1 MOL     -0.581426
     97 C31         0.7280   -0.7940    3.8540 c3        1 MOL      0.093275
     98 C32         0.2590   -1.3970    5.2100 c3        1 MOL     -0.195910
     99 C33        -0.2320    0.3370    3.3860 c3        1 MOL     -0.104244
    100 C34         0.7260   -2.7900    5.7290 c3        1 MOL      0.021063
    101 H42        -0.6630   -3.1310    2.9990 hn        1 MOL      0.316716
    102 H43         1.0560   -1.0000    1.8180 h1        1 MOL      0.097997
    103 H44         1.7100   -0.3270    3.9730 hc        1 MOL     -0.033907
    104 H45        -0.8250   -1.4410    5.1130 hc        1 MOL      0.053517
    105 H46         0.6080   -0.6410    5.9220 hc        1 MOL      0.053517
    106 H47        -0.5160    0.9840    4.2180 hc        1 MOL      0.048446
    107 H48         0.2840    0.9380    2.6390 hc        1 MOL      0.048446
    108 H49        -1.1520   -0.1000    3.0160 hc        1 MOL      0.048446
    109 H50         1.8210   -2.8290    5.6930 hc        1 MOL     -0.001262
    110 H51         0.3570   -3.0260    6.7280 hc        1 MOL     -0.001262
    111 H52         0.2620   -3.4930    5.0400 hc        1 MOL     -0.001262
    112 N10         3.4230   -2.2120    2.2030 n         1 MOL     -0.941448
    113 C35         4.7300   -2.8400    2.4290 c3        1 MOL      0.166946
    114 C36         5.8200   -1.8970    3.0240 c         1 MOL      0.543821
    115 O17         6.7920   -2.3610    3.6370 o         1 MOL     -0.492905
    116 C37         5.2180   -3.5480    1.1360 c3        1 MOL      0.284338
    117 C38         6.3520   -4.5360    1.3760 c3        1 MOL     -0.286981
    118 O18         5.7440   -2.5220    0.2670 oh        1 MOL     -0.574625
    119 H53         3.4010   -1.3240    1.7190 hn        1 MOL      0.340340
    120 H54         4.6340   -3.6540    3.1450 h1        1 MOL      0.062923
    121 H55         4.3740   -4.1460    0.8000 h1        1 MOL      0.047645
    122 H56         5.8860   -3.0580   -0.5270 ho        1 MOL      0.359809
    123 H57         7.0840   -4.5810    0.5710 hc        1 MOL      0.073465
    124 H58         6.9280   -4.3970    2.2960 hc        1 MOL      0.073465
    125 H59         5.9010   -5.5280    1.4440 hc        1 MOL      0.073465
    126 N11         5.6710   -0.5350    2.8580 n         1 MOL     -0.380781
    127 C39         6.7530    0.4220    3.2180 c3        1 MOL     -0.282560
    128 C40         7.8800    0.3940    2.2370 c         1 MOL      0.685465
    129 O19         8.9390   -0.0810    2.6080 o         1 MOL     -0.516934
    130 C41         7.1660    0.4420    4.7020 c3        1 MOL      0.473296
    131 C42         6.0960    0.3580    5.7710 c3        1 MOL     -0.234929
    132 O20         7.7410    1.6590    5.0160 oh        1 MOL     -0.633097
    133 H60         4.8490   -0.1510    2.4360 hn        1 MOL      0.302759
    134 H61         6.2290    1.3540    2.9970 h1        1 MOL      0.124847
    135 H62         7.9290   -0.3150    4.9220 h1        1 MOL      0.015479
    136 H63         8.6820    1.5040    4.8970 ho        1 MOL      0.365421
    137 H64         6.6000    0.4970    6.7320 hc        1 MOL      0.062855
    138 H65         5.2390    0.9950    5.5510 hc        1 MOL      0.062855
    139 H66         5.7090   -0.6590    5.8150 hc        1 MOL      0.062855
    140 N12         7.6670    0.7610    0.9440 n         1 MOL     -0.659963
    141 C43         8.6430    0.4530   -0.1060 c3        1 MOL      0.039807
    142 C44         7.9880   -0.1320   -1.3890 c         1 MOL      0.758005
    143 O21         8.6750   -0.9700   -1.9570 o         1 MOL     -0.614654
    144 C45         9.3920    1.7020   -0.2930 c3        1 MOL      0.122499
    145 C46        10.5390    1.6790   -1.3080 c3        1 MOL     -0.226837
    146 C47        11.2550    2.9930   -1.2260 c3        1 MOL      0.051303
    147 C48        12.1970    3.1100   -2.3760 c3        1 MOL      0.015301
    148 N13        13.2950    4.0250   -2.1400 n4        1 MOL     -0.116546
    149 H67         6.7750    1.1670    0.7050 hn        1 MOL      0.310778
    150 H68         9.4050   -0.2380    0.2510 h1        1 MOL      0.111906
    151 H69         9.7810    2.0550    0.6550 hc        1 MOL     -0.002522
    152 H70         8.6550    2.4980   -0.4690 hc        1 MOL     -0.002522
    153 H71        10.1010    1.4370   -2.2680 hc        1 MOL      0.082174
    154 H72        11.2180    0.9020   -0.9420 hc        1 MOL      0.082174
    155 H73        11.8070    3.1180   -0.2980 hc        1 MOL      0.021597
    156 H74        10.5730    3.8490   -1.2340 hc        1 MOL      0.021597
    157 H75        11.6770    3.3160   -3.3100 hx        1 MOL      0.075041
    158 H76        12.6960    2.1670   -2.6130 hx        1 MOL      0.075041
    159 H77        12.9460    4.9770   -2.1760 hn        1 MOL      0.197957
    160 H78        13.7410    3.8850   -1.2390 hn        1 MOL      0.197957
    161 H79        14.0350    4.1470   -2.8130 hn        1 MOL      0.197957
    162 N14         6.8620    0.4060   -1.8830 n         1 MOL     -0.696030
    163 C49         6.2220   -0.2150   -3.1050 c3        1 MOL      0.047606
    164 C50         6.8620    0.2700   -4.4480 c         1 MOL      0.579333
    165 O22         7.0520    1.4880   -4.5430 o         1 MOL     -0.553020
    166 C51         4.7080   -0.1220   -3.0470 c3        1 MOL     -0.173252
    167 C52         4.1040   -0.9360   -1.9260 c3        1 MOL      0.277674
    168 C53         2.5720   -1.0820   -1.9690 c         1 MOL      0.491773
    169 O23         2.0090   -1.9570   -2.7160 o         1 MOL     -0.697554
    170 O24         1.9180   -0.2910   -1.2260 o         1 MOL     -0.697554
    171 H80         6.3350    1.0730   -1.3510 hn        1 MOL      0.397028
    172 H81         6.3950   -1.2810   -3.1860 h1        1 MOL      0.064538
    173 H82         4.3870   -0.4530   -4.0330 hc        1 MOL      0.044300
    174 H83         4.4070    0.9150   -2.8920 hc        1 MOL      0.044300
    175 H84         4.4260   -0.4530   -1.0110 hc        1 MOL     -0.041820
    176 H85         4.5380   -1.9150   -2.0890 hc        1 MOL     -0.041820
    177 N15         7.2060   -0.5330   -5.4410 n         1 MOL     -0.394599
    178 C54         8.0080   -0.1460   -6.6570 c3        1 MOL     -0.139306
    179 H86         7.7610   -0.8140   -7.4830 h1        1 MOL      0.102183
    180 H87         7.7710    0.8800   -6.9370 h1        1 MOL      0.102183
    181 H88         9.0720   -0.2250   -6.4310 h1        1 MOL      0.102183
    182 H89         6.7200   -1.4230   -5.3550 hn        1 MOL      0.271669
    183 Ca1        -0.4490   -0.9650   -2.4400 Ca        1 MOL      1.723511
    184 O25         0.3530    1.5300   -3.2270 oh        1 MOL     -0.846723
    185 H90        -0.1600    2.2180   -3.6490 ho        1 MOL      0.416776
    186 H91         0.9150    1.1850   -3.9270 ho        1 MOL      0.416776
    187 O26        -2.3510    0.3750   -3.7130 oh        1 MOL     -0.846723
    188 H92        -2.8460    1.2000   -3.7920 ho        1 MOL      0.416776
    189 H93        -2.6620   -0.1560   -4.4420 ho        1 MOL      0.416776
    190 O27        -0.3380   -1.6540   -5.0390 oh        1 MOL     -0.846723
    191 H94         0.1970   -2.0820   -5.7080 ho        1 MOL      0.416776
    192 H95        -1.2280   -1.6920   -5.3840 ho        1 MOL      0.416776
@<TRIPOS>BOND
     1    1    2 1   
     2    1    4 1   
     3    1    5 1   
     4    1    6 1   
     5    2    3 2   
     6    2    7 1   
     7    7    8 1   
     8    7   15 1   
     9    8    9 1   
    10    8   11 1   
    11    8   16 1   
    12    9   10 2   
    13    9   19 1   
    14   11   12 1   
    15   11   17 1   
    16   11   18 1   
    17   12   13 1   
    18   12   14 1   
    19   19   20 1   
    20   19   28 1   
    21   20   21 1   
    22   20   23 1   
    23   20   29 1   
    24   21   22 2   
    25   21   41 1   
    26   23   24 1   
    27   23   30 1   
    28   23   31 1   
    29   24   25 1   
    30   24   32 1   
    31   24   33 1   
    32   25   26 1   
    33   25   34 1   
    34   25   35 1   
    35   26   27 1   
    36   26   36 1   
    37   26   37 1   
    38   27   38 1   
    39   27   39 1   
    40   27   40 1   
    41   41   42 1   
    42   41   49 1   
    43   42   43 1   
    44   42   45 1   
    45   42   50 1   
    46   43   44 2   
    47   43   53 1   
    48   45   46 1   
    49   45   51 1   
    50   45   52 1   
    51   46   47 1   
    52   46   48 1   
    53   53   54 1   
    54   53   57 1   
    55   54   55 1   
    56   54   58 1   
    57   54   59 1   
    58   55   56 2   
    59   55   60 1   
    60   60   61 1   
    61   60   68 1   
    62   61   62 1   
    63   61   64 1   
    64   61   69 1   
    65   62   63 2   
    66   62   72 1   
    67   64   65 1   
    68   64   70 1   
    69   64   71 1   
    70   65   66 1   
    71   65   67 1   
    72   72   73 1   
    73   72   76 1   
    74   73   74 1   
    75   73   77 1   
    76   73   78 1   
    77   74   75 2   
    78   74   79 1   
    79   79   80 1   
    80   79   86 1   
    81   80   81 1   
    82   80   83 1   
    83   80   87 1   
    84   81   82 2   
    85   81   93 1   
    86   83   84 1   
    87   83   85 1   
    88   83   88 1   
    89   84   90 1   
    90   84   91 1   
    91   84   92 1   
    92   85   89 1   
    93   93   94 1   
    94   93  101 1   
    95   94   95 1   
    96   94   97 1   
    97   94  102 1   
    98   95   96 2   
    99   95  112 1   
   100   97   98 1   
   101   97   99 1   
   102   97  103 1   
   103   98  100 1   
   104   98  104 1   
   105   98  105 1   
   106   99  106 1   
   107   99  107 1   
   108   99  108 1   
   109  100  109 1   
   110  100  110 1   
   111  100  111 1   
   112  112  113 1   
   113  112  119 1   
   114  113  114 1   
   115  113  116 1   
   116  113  120 1   
   117  114  115 2   
   118  114  126 1   
   119  116  117 1   
   120  116  118 1   
   121  116  121 1   
   122  117  123 1   
   123  117  124 1   
   124  117  125 1   
   125  118  122 1   
   126  126  127 1   
   127  126  133 1   
   128  127  128 1   
   129  127  130 1   
   130  127  134 1   
   131  128  129 2   
   132  128  140 1   
   133  130  131 1   
   134  130  132 1   
   135  130  135 1   
   136  131  137 1   
   137  131  138 1   
   138  131  139 1   
   139  132  136 1   
   140  140  141 1   
   141  140  149 1   
   142  141  142 1   
   143  141  144 1   
   144  141  150 1   
   145  142  143 2   
   146  142  162 1   
   147  144  145 1   
   148  144  151 1   
   149  144  152 1   
   150  145  146 1   
   151  145  153 1   
   152  145  154 1   
   153  146  147 1   
   154  146  155 1   
   155  146  156 1   
   156  147  148 1   
   157  147  157 1   
   158  147  158 1   
   159  148  159 1   
   160  148  160 1   
   161  148  161 1   
   162  162  163 1   
   163  162  171 1   
   164  163  164 1   
   165  163  166 1   
   166  163  172 1   
   167  164  165 2   
   168  164  177 1   
   169  166  167 1   
   170  166  173 1   
   171  166  174 1   
   172  167  168 1   
   173  167  175 1   
   174  167  176 1   
   175  168  169 1   
   176  168  170 1   
   177  177  178 1   
   178  177  182 1   
   179  178  179 1   
   180  178  180 1   
   181  178  181 1   
   182  184  185 1   
   183  184  186 1   
   184  187  188 1   
   185  187  189 1   
   186  190  191 1   
   187  190  192 1   
@<TRIPOS>SUBSTRUCTURE
     1 MOL         1 TEMP              0 ****  ****    0 ROOT
