@<TRIPOS>MOLECULE
MOL
  192   187     1     0     0
SMALL
resp


@<TRIPOS>ATOM
      1 C1          3.8810   -1.9330   -2.7020 c3        1 MOL     -0.159802
      2 C2          3.0260   -2.6300   -1.6190 c         1 MOL      0.507536
      3 O1          2.0780   -2.0160   -1.1350 o         1 MOL     -0.482217
      4 H1          4.9380   -2.1070   -2.4990 hc        1 MOL      0.039877
      5 H2          3.6280   -2.3390   -3.6830 hc        1 MOL      0.039877
      6 H3          3.6810   -0.8620   -2.6890 hc        1 MOL      0.039877
      7 N1          3.2970   -3.8940   -1.3120 n         1 MOL     -0.502196
      8 C3          2.7880   -4.8160   -0.3830 c3        1 MOL      0.381466
      9 C4          1.2310   -4.6230   -0.2780 c         1 MOL      0.425138
     10 O2          0.7220   -3.9040    0.6370 o         1 MOL     -0.480159
     11 C5          3.4720   -4.8110    1.0100 c3        1 MOL     -0.370314
     12 C6          4.9540   -4.4890    0.9180 c         1 MOL      0.907210
     13 O3          5.6580   -4.4590    2.0000 o         1 MOL     -0.803168
     14 O4          5.5810   -4.6070   -0.1540 o         1 MOL     -0.803168
     15 H4          4.0410   -4.1590   -1.9470 hn        1 MOL      0.270729
     16 H5          2.9400   -5.8040   -0.8110 h1        1 MOL      0.000662
     17 H6          3.2590   -5.7910    1.4290 hc        1 MOL      0.089031
     18 H7          3.0360   -4.0730    1.6690 hc        1 MOL      0.089031
     19 N2          0.5250   -5.2950   -1.2120 n         1 MOL     -0.575647
     20 C7         -0.9490   -5.2760   -1.3460 c3        1 MOL      0.185627
     21 C8         -1.6530   -6.6710   -1.1370 c         1 MOL      0.588273
     22 O5         -1.0020   -7.7140   -1.3910 o         1 MOL     -0.619050
     23 C9         -1.2750   -4.6840   -2.7380 c3        1 MOL      0.064629
     24 C10        -0.7070   -5.3460   -3.9700 c3        1 MOL      0.053930
     25 C11        -0.9370   -3.2270   -2.7850 c3        1 MOL     -0.277712
     26 C12        -1.2500   -4.7330   -5.2240 c3        1 MOL     -0.083871
     27 H8          1.0870   -5.8200   -1.8610 hn        1 MOL      0.253006
     28 H9         -1.3380   -4.5590   -0.6350 h1        1 MOL      0.071639
     29 H10        -2.3560   -4.7420   -2.8550 hc        1 MOL      0.040653
     30 H11        -0.9140   -6.4110   -4.0480 hc        1 MOL     -0.013699
     31 H12         0.3510   -5.1170   -3.9770 hc        1 MOL     -0.013699
     32 H13        -1.2050   -2.7460   -1.8440 hc        1 MOL      0.089121
     33 H14         0.1050   -3.0430   -3.0310 hc        1 MOL      0.089121
     34 H15        -1.5280   -2.7740   -3.5790 hc        1 MOL      0.089121
     35 H16        -2.3290   -4.6710   -5.3330 hc        1 MOL      0.012033
     36 H17        -0.8570   -3.7270   -5.4140 hc        1 MOL      0.012033
     37 H18        -0.9650   -5.3520   -6.0840 hc        1 MOL      0.012033
     38 N3         -2.9350   -6.7540   -0.8050 n         1 MOL     -0.578082
     39 C13        -3.9570   -5.6290   -0.6670 c3        1 MOL      0.005640
     40 C14        -4.6670   -5.9550    0.7070 c         1 MOL      0.450327
     41 O6         -4.8770   -7.0870    1.1140 o         1 MOL     -0.542684
     42 C15        -4.9080   -5.7070   -1.8640 c3        1 MOL     -0.159356
     43 C16        -6.2180   -4.9330   -1.6690 c         1 MOL      0.742885
     44 O7         -6.2440   -3.9000   -0.9350 o         1 MOL     -0.722479
     45 O8         -7.1850   -5.2380   -2.4340 o         1 MOL     -0.722479
     46 H19        -3.3630   -7.6670   -0.7850 hn        1 MOL      0.343155
     47 H20        -3.4370   -4.6710   -0.5840 h1        1 MOL      0.037586
     48 H21        -5.2000   -6.7610   -1.9220 hc        1 MOL      0.039893
     49 H22        -4.4450   -5.5040   -2.8270 hc        1 MOL      0.039893
     50 N4         -5.1940   -4.9120    1.3440 n         1 MOL     -0.161821
     51 C17        -5.9670   -4.9800    2.5400 c3        1 MOL     -0.031649
     52 C18        -6.7470   -3.6700    2.7640 c         1 MOL      0.356837
     53 O9         -7.9930   -3.6690    2.6950 o         1 MOL     -0.518935
     54 H23        -5.0950   -4.0230    0.8620 hn        1 MOL      0.207351
     55 H24        -5.2170   -5.1270    3.3170 h1        1 MOL      0.043419
     56 H25        -6.6060   -5.8590    2.5030 h1        1 MOL      0.043419
     57 N5         -6.0380   -2.5400    2.7220 n         1 MOL     -0.105965
     58 C19        -6.6150   -1.2470    3.1610 c3        1 MOL     -0.148418
     59 C20        -7.4920   -0.4990    2.1400 c         1 MOL      0.565421
     60 O10        -8.5240    0.0750    2.5190 o         1 MOL     -0.606846
     61 C21        -5.5110   -0.3020    3.6950 c3        1 MOL     -0.253964
     62 C22        -4.4430   -0.1270    2.6150 c         1 MOL      0.649924
     63 O11        -3.4950   -0.8970    2.7080 o         1 MOL     -0.664281
     64 O12        -4.5900    0.6620    1.6300 o         1 MOL     -0.664281
     65 H26        -5.0280   -2.5650    2.6210 hn        1 MOL      0.149731
     66 H27        -7.2510   -1.3930    4.0370 h1        1 MOL      0.098371
     67 H28        -5.0860   -0.7050    4.6170 hc        1 MOL      0.070499
     68 H29        -6.0250    0.6300    3.9510 hc        1 MOL      0.070499
     69 N6         -7.3150   -0.6720    0.8210 n         1 MOL     -0.093138
     70 C23        -8.1180   -0.0710   -0.2520 c3        1 MOL     -0.327318
     71 C24        -7.9820    1.4700   -0.5010 c         1 MOL      0.667379
     72 O13        -8.7210    1.9930   -1.3430 o         1 MOL     -0.584492
     73 H30        -6.6290   -1.3580    0.5550 hn        1 MOL      0.217247
     74 H31        -9.1270   -0.3320    0.0900 h1        1 MOL      0.136148
     75 H32        -7.9010   -0.5980   -1.1750 h1        1 MOL      0.136148
     76 N7         -7.1510    2.0930    0.3370 n         1 MOL     -0.354809
     77 C25        -6.9590    3.5740    0.4340 c3        1 MOL      0.039471
     78 C26        -6.3120    4.3690   -0.6830 c         1 MOL      0.299663
     79 O14        -6.4790    5.6260   -0.7630 o         1 MOL     -0.486999
     80 C27        -8.1960    4.2470    0.9980 c3        1 MOL      0.118959
     81 C28        -8.4930    3.7090    2.4460 c3        1 MOL     -0.155143
     82 C29        -7.5790    4.2970    3.4990 c         1 MOL      0.602382
     83 N8         -7.6400    3.7900    4.7140 n         1 MOL     -0.734715
     84 O15        -6.7920    5.1670    3.2350 o         1 MOL     -0.529642
     85 H33        -6.7260    1.5650    1.0860 hn        1 MOL      0.157197
     86 H34        -6.1930    3.7160    1.1950 h1        1 MOL      0.131919
     87 H35        -9.0930    3.9820    0.4350 hc        1 MOL     -0.016116
     88 H36        -8.0700    5.3360    0.9930 hc        1 MOL     -0.016116
     89 H37        -8.3900    2.6240    2.4770 hc        1 MOL      0.034619
     90 H38        -9.5210    4.0220    2.6360 hc        1 MOL      0.034619
     91 H39        -8.2540    3.0270    4.9280 hn        1 MOL      0.325486
     92 H40        -7.3330    4.3730    5.4820 hn        1 MOL      0.325486
     93 N9         -5.4900    3.6460   -1.4280 n         1 MOL     -0.193286
     94 C30        -4.9900    4.1010   -2.7180 c3        1 MOL     -0.101119
     95 C31        -3.4800    4.0130   -2.9140 c         1 MOL      0.530754
     96 O16        -2.9540    4.5570   -3.8620 o         1 MOL     -0.560725
     97 C32        -5.7070    3.4300   -3.9020 c3        1 MOL      0.393407
     98 C33        -5.6430    1.9040   -3.9320 c3        1 MOL     -0.461144
     99 C34        -7.1680    3.7840   -3.8950 c3        1 MOL     -0.461144
    100 H41        -5.3910    2.6770   -1.1670 hn        1 MOL      0.210810
    101 H42        -5.1630    5.1680   -2.7950 h1        1 MOL      0.101341
    102 H43        -5.3420    3.8530   -4.8320 hc        1 MOL     -0.052388
    103 H44        -6.2470    1.4180   -3.1720 hc        1 MOL      0.108629
    104 H45        -6.0140    1.6260   -4.9180 hc        1 MOL      0.108629
    105 H46        -4.6010    1.5980   -3.8380 hc        1 MOL      0.108629
    106 H47        -7.1300    4.8590   -3.7520 hc        1 MOL      0.108629
    107 H48        -7.6810    3.3890   -4.7690 hc        1 MOL      0.108629
    108 H49        -7.7130    3.4180   -3.0370 hc        1 MOL      0.108629
    109 N10        -2.7530    3.3760   -1.9480 n         1 MOL     -0.439565
    110 C35        -1.4350    2.8460   -2.0000 c3        1 MOL      0.331402
    111 C36        -0.5810    3.2550   -0.7890 c         1 MOL      0.431612
    112 O17        -1.1730    3.4200    0.2960 o         1 MOL     -0.512995
    113 C37        -1.6060    1.3420   -2.1720 c3        1 MOL     -0.017141
    114 C38        -0.3310    0.6090   -2.3140 c         1 MOL      0.469896
    115 N11         0.0610   -0.1820   -1.3470 n         1 MOL     -0.713470
    116 O18         0.3860    0.8970   -3.2890 o         1 MOL     -0.589788
    117 H50        -3.1990    3.1040   -1.0870 hn        1 MOL      0.210192
    118 H51        -0.9500    3.2360   -2.9040 h1        1 MOL     -0.001345
    119 H52        -2.1840    1.1850   -3.0800 hc        1 MOL      0.004253
    120 H53        -2.2300    0.9470   -1.3690 hc        1 MOL      0.004253
    121 H54        -0.5480   -0.4590   -0.5880 hn        1 MOL      0.365491
    122 H55         0.8250   -0.7920   -1.5970 hn        1 MOL      0.365491
    123 N12         0.7390    3.4480   -0.9360 n         1 MOL     -0.572709
    124 C39         1.6930    3.4110    0.1830 c3        1 MOL      0.456845
    125 C40         2.9880    4.0290   -0.3180 c         1 MOL      0.395831
    126 O19         3.2350    4.1170   -1.5380 o         1 MOL     -0.606964
    127 C41         1.9410    1.9640    0.6410 c3        1 MOL     -0.241841
    128 C42         2.4970    1.9560    2.0630 ca        1 MOL      0.064634
    129 C43         3.8530    1.4990    2.4130 ca        1 MOL     -0.176781
    130 C44         1.6060    2.3460    3.0980 ca        1 MOL     -0.176781
    131 C45         4.1950    1.5280    3.7710 ca        1 MOL     -0.200758
    132 C46         2.0140    2.3000    4.4450 ca        1 MOL     -0.200758
    133 C47         3.3440    1.9730    4.8080 ca        1 MOL      0.255138
    134 O20         3.7300    2.0400    6.0910 oh        1 MOL     -0.480918
    135 H56         1.2210    3.4680   -1.8240 hn        1 MOL      0.329038
    136 H57         1.3290    4.0160    1.0260 h1        1 MOL     -0.010708
    137 H58         2.5390    1.3470   -0.0340 hc        1 MOL      0.114129
    138 H59         0.9370    1.5430    0.7040 hc        1 MOL      0.114129
    139 H60         4.5460    1.2040    1.6400 ha        1 MOL      0.152029
    140 H61         0.6460    2.7810    2.8650 ha        1 MOL      0.152029
    141 H62         5.1480    1.1080    4.0590 ha        1 MOL      0.131184
    142 H63         1.3000    2.5830    5.2010 ha        1 MOL      0.131184
    143 H64         4.6900    1.9610    6.1540 ho        1 MOL      0.355323
    144 N13         3.8270    4.5000    0.5760 n         1 MOL     -0.479085
    145 C48         5.1720    5.0660    0.2070 c3        1 MOL      0.424946
    146 C49         6.2910    4.2710    0.8740 c         1 MOL      0.392915
    147 O21         6.6990    4.5780    1.9920 o         1 MOL     -0.590405
    148 C50         5.1730    6.5550    0.6810 c3        1 MOL     -0.187476
    149 C51         4.5730    7.4370   -0.4390 c3        1 MOL     -0.138059
    150 C52         4.8040    8.9160   -0.1760 c         1 MOL      0.659311
    151 O22         4.4220    9.3570    0.9400 o         1 MOL     -0.669997
    152 O23         5.3660    9.6800   -1.0240 o         1 MOL     -0.669997
    153 H65         3.6260    4.4650    1.5640 hn        1 MOL      0.260774
    154 H66         5.3980    5.0080   -0.8600 h1        1 MOL      0.038454
    155 H67         6.2270    6.8570    0.7370 hc        1 MOL      0.073277
    156 H68         4.6080    6.6890    1.6030 hc        1 MOL      0.073277
    157 H69         3.4880    7.3180   -0.4730 hc        1 MOL      0.027620
    158 H70         5.0490    7.2370   -1.4040 hc        1 MOL      0.027620
    159 N14         6.8840    3.1810    0.3510 n         1 MOL     -0.448372
    160 C53         6.6380    2.5900   -0.9430 c3        1 MOL     -0.077650
    161 C54         7.0770    3.4570   -2.1140 c         1 MOL      0.482210
    162 O24         8.1610    4.0400   -2.0260 o         1 MOL     -0.527842
    163 C55         7.1930    1.0820   -1.0010 c3        1 MOL     -0.039721
    164 C56         6.3640    0.2290    0.0490 c3        1 MOL     -0.061526
    165 C57         6.9850   -1.1600    0.2710 c         1 MOL      0.979151
    166 O25         6.8370   -1.7190    1.3320 o         1 MOL     -0.883433
    167 O26         7.6490   -1.7230   -0.5990 o         1 MOL     -0.883433
    168 H71         7.6880    2.9360    0.9080 hn        1 MOL      0.334302
    169 H72         5.5580    2.4900   -1.0060 h1        1 MOL      0.078233
    170 H73         8.2490    0.9780   -0.7930 hc        1 MOL      0.018755
    171 H74         6.9700    0.7250   -2.0120 hc        1 MOL      0.018755
    172 H75         5.3190    0.0680   -0.2260 hc        1 MOL      0.007330
    173 H76         6.5480    0.6950    1.0130 hc        1 MOL      0.007330
    174 N15         6.2080    3.5060   -3.1400 n         1 MOL     -0.218793
    175 C58         6.4850    4.1510   -4.4010 c3        1 MOL     -0.266859
    176 H77         7.5450    4.0510   -4.6340 h1        1 MOL      0.106267
    177 H78         5.8940    3.6810   -5.1880 h1        1 MOL      0.106267
    178 H79         6.2260    5.2070   -4.3340 h1        1 MOL      0.106267
    179 H80         5.4650    2.8170   -3.0950 hn        1 MOL      0.268525
    180 Ca1         8.0270   -3.9590    0.8520 Ca        1 MOL      1.757766
    181 O27        10.5010   -4.8120    0.3400 oh        1 MOL     -0.831452
    182 H81        11.2000   -5.4070    0.0550 ho        1 MOL      0.392558
    183 H82        10.9520   -4.1600    0.8850 ho        1 MOL      0.392558
    184 O28         9.1660   -4.9260    3.0380 oh        1 MOL     -0.831452
    185 H83         9.5430   -4.3460    3.6930 ho        1 MOL      0.392558
    186 H84         9.5450   -5.7820    3.2150 ho        1 MOL      0.392558
    187 O29         7.9150   -6.7320    0.8260 oh        1 MOL     -0.831452
    188 H85         8.5200   -7.1910    1.4040 ho        1 MOL      0.392558
    189 H86         7.2450   -7.3810    0.6220 ho        1 MOL      0.392558
    190 O30         9.9560   -2.3020    1.6710 oh        1 MOL     -0.831452
    191 H87        10.7820   -1.9510    1.3270 ho        1 MOL      0.392558
    192 H88         9.8630   -1.9070    2.5360 ho        1 MOL      0.392558
@<TRIPOS>BOND
     1    1    2 1   
     2    1    4 1   
     3    1    5 1   
     4    1    6 1   
     5    2    3 2   
     6    2    7 1   
     7    7    8 1   
     8    7   15 1   
     9    8    9 1   
    10    8   11 1   
    11    8   16 1   
    12    9   10 2   
    13    9   19 1   
    14   11   12 1   
    15   11   17 1   
    16   11   18 1   
    17   12   13 1   
    18   12   14 1   
    19   19   20 1   
    20   19   27 1   
    21   20   21 1   
    22   20   23 1   
    23   20   28 1   
    24   21   22 2   
    25   21   38 1   
    26   23   24 1   
    27   23   25 1   
    28   23   29 1   
    29   24   26 1   
    30   24   30 1   
    31   24   31 1   
    32   25   32 1   
    33   25   33 1   
    34   25   34 1   
    35   26   35 1   
    36   26   36 1   
    37   26   37 1   
    38   38   39 1   
    39   38   46 1   
    40   39   40 1   
    41   39   42 1   
    42   39   47 1   
    43   40   41 2   
    44   40   50 1   
    45   42   43 1   
    46   42   48 1   
    47   42   49 1   
    48   43   44 1   
    49   43   45 1   
    50   50   51 1   
    51   50   54 1   
    52   51   52 1   
    53   51   55 1   
    54   51   56 1   
    55   52   53 2   
    56   52   57 1   
    57   57   58 1   
    58   57   65 1   
    59   58   59 1   
    60   58   61 1   
    61   58   66 1   
    62   59   60 2   
    63   59   69 1   
    64   61   62 1   
    65   61   67 1   
    66   61   68 1   
    67   62   63 1   
    68   62   64 1   
    69   69   70 1   
    70   69   73 1   
    71   70   71 1   
    72   70   74 1   
    73   70   75 1   
    74   71   72 2   
    75   71   76 1   
    76   76   77 1   
    77   76   85 1   
    78   77   78 1   
    79   77   80 1   
    80   77   86 1   
    81   78   79 2   
    82   78   93 1   
    83   80   81 1   
    84   80   87 1   
    85   80   88 1   
    86   81   82 1   
    87   81   89 1   
    88   81   90 1   
    89   82   83 1   
    90   82   84 2   
    91   83   91 1   
    92   83   92 1   
    93   93   94 1   
    94   93  100 1   
    95   94   95 1   
    96   94   97 1   
    97   94  101 1   
    98   95   96 2   
    99   95  109 1   
   100   97   98 1   
   101   97   99 1   
   102   97  102 1   
   103   98  103 1   
   104   98  104 1   
   105   98  105 1   
   106   99  106 1   
   107   99  107 1   
   108   99  108 1   
   109  109  110 1   
   110  109  117 1   
   111  110  111 1   
   112  110  113 1   
   113  110  118 1   
   114  111  112 2   
   115  111  123 1   
   116  113  114 1   
   117  113  119 1   
   118  113  120 1   
   119  114  115 1   
   120  114  116 2   
   121  115  121 1   
   122  115  122 1   
   123  123  124 1   
   124  123  135 1   
   125  124  125 1   
   126  124  127 1   
   127  124  136 1   
   128  125  126 2   
   129  125  144 1   
   130  127  128 1   
   131  127  137 1   
   132  127  138 1   
   133  128  129 ar  
   134  128  130 ar  
   135  129  131 ar  
   136  129  139 1   
   137  130  132 ar  
   138  130  140 1   
   139  131  133 ar  
   140  131  141 1   
   141  132  133 ar  
   142  132  142 1   
   143  133  134 1   
   144  134  143 1   
   145  144  145 1   
   146  144  153 1   
   147  145  146 1   
   148  145  148 1   
   149  145  154 1   
   150  146  147 2   
   151  146  159 1   
   152  148  149 1   
   153  148  155 1   
   154  148  156 1   
   155  149  150 1   
   156  149  157 1   
   157  149  158 1   
   158  150  151 1   
   159  150  152 1   
   160  159  160 1   
   161  159  168 1   
   162  160  161 1   
   163  160  163 1   
   164  160  169 1   
   165  161  162 2   
   166  161  174 1   
   167  163  164 1   
   168  163  170 1   
   169  163  171 1   
   170  164  165 1   
   171  164  172 1   
   172  164  173 1   
   173  165  166 1   
   174  165  167 1   
   175  174  175 1   
   176  174  179 1   
   177  175  176 1   
   178  175  177 1   
   179  175  178 1   
   180  181  182 1   
   181  181  183 1   
   182  184  185 1   
   183  184  186 1   
   184  187  188 1   
   185  187  189 1   
   186  190  191 1   
   187  190  192 1   
@<TRIPOS>SUBSTRUCTURE
     1 MOL         1 TEMP              0 ****  ****    0 ROOT
