@<TRIPOS>MOLECULE
MOL
  195   189     1     0     0
SMALL
resp


@<TRIPOS>ATOM
      1 C1          1.3820    3.8050    3.3740 c3        1 MOL     -0.225746
      2 C2          0.5380    4.0080    2.0840 c         1 MOL      0.668077
      3 O1         -0.3760    3.2510    1.7680 o         1 MOL     -0.516363
      4 H1          0.9540    4.3960    4.1840 hc        1 MOL      0.036067
      5 H2          1.3750    2.7510    3.6510 hc        1 MOL      0.036067
      6 H3          2.4070    4.1270    3.1930 hc        1 MOL      0.036067
      7 N1          0.7730    5.1210    1.3650 n         1 MOL     -0.335324
      8 C3          0.2000    5.4880    0.0630 c3        1 MOL     -0.137773
      9 C4         -1.2780    5.5370   -0.0420 c         1 MOL      0.857605
     10 O2         -1.7990    4.9750   -0.9940 o         1 MOL     -0.584803
     11 C5          0.9470    4.6980   -1.0410 c3        1 MOL     -0.369341
     12 C6          2.4340    4.9480   -1.0330 c         1 MOL      0.752124
     13 O3          2.8840    6.1680   -1.1810 o         1 MOL     -0.742823
     14 O4          3.2450    4.0280   -0.7790 o         1 MOL     -0.742823
     15 H4          1.5200    5.7400    1.6620 hn        1 MOL      0.185604
     16 H5          0.5150    6.5340   -0.0240 h1        1 MOL      0.077580
     17 H6          0.7190    5.0270   -2.0610 hc        1 MOL      0.145812
     18 H7          0.8060    3.6170   -0.9890 hc        1 MOL      0.145812
     19 N2         -1.9680    6.0530    0.9480 n         1 MOL     -0.634697
     20 C7         -3.3710    5.7550    1.0880 c3        1 MOL     -0.175285
     21 C8         -4.2400    6.5910    0.1010 c         1 MOL      0.477595
     22 O5         -3.8230    7.6890   -0.2700 o         1 MOL     -0.561260
     23 C9         -3.7530    6.0110    2.5650 c3        1 MOL     -0.030077
     24 C10        -3.5710    7.4590    3.0940 c3        1 MOL      0.176690
     25 C11        -2.9610    5.1830    3.5220 c3        1 MOL     -0.093574
     26 C12        -3.9450    7.7890    4.5640 c3        1 MOL     -0.334807
     27 H8         -1.4870    6.6490    1.6170 hn        1 MOL      0.311429
     28 H9         -3.5220    4.6900    0.9500 h1        1 MOL      0.235978
     29 H10        -4.8060    5.7580    2.6750 hc        1 MOL      0.083422
     30 H11        -4.1000    8.1240    2.4110 hc        1 MOL     -0.005926
     31 H12        -2.5320    7.7760    3.0440 hc        1 MOL     -0.005926
     32 H13        -1.9040    5.4360    3.5130 hc        1 MOL      0.019909
     33 H14        -3.3790    5.2740    4.5240 hc        1 MOL      0.019909
     34 H15        -2.9770    4.1070    3.3170 hc        1 MOL      0.019909
     35 H16        -3.2270    7.3370    5.2540 hc        1 MOL      0.070026
     36 H17        -4.0600    8.8740    4.6400 hc        1 MOL      0.070026
     37 H18        -4.9060    7.3320    4.8190 hc        1 MOL      0.070026
     38 N3         -5.4470    6.2470   -0.2890 n         1 MOL     -0.338809
     39 C13        -6.2250    5.0520    0.1020 c3        1 MOL      0.150207
     40 C14        -5.7170    3.7290   -0.5600 c         1 MOL      0.404876
     41 O6         -5.4280    2.7960    0.2140 o         1 MOL     -0.566254
     42 C15        -7.7800    5.1260   -0.0340 c3        1 MOL     -0.254966
     43 C16        -8.3800    5.6380   -1.3430 c         1 MOL      0.655484
     44 O7         -9.6520    5.5240   -1.5040 o         1 MOL     -0.696021
     45 O8         -7.6200    6.1310   -2.2550 o         1 MOL     -0.696021
     46 H19        -5.9610    6.8020   -0.9600 hn        1 MOL      0.241198
     47 H20        -6.0880    4.9860    1.1780 h1        1 MOL     -0.011186
     48 H21        -8.2060    5.7010    0.7790 hc        1 MOL      0.068217
     49 H22        -8.1920    4.1240    0.0690 hc        1 MOL      0.068217
     50 N4         -5.5050    3.7350   -1.8600 n         1 MOL     -0.268732
     51 C17        -4.8690    2.6160   -2.5630 c3        1 MOL     -0.066549
     52 C18        -5.7360    1.3270   -2.6810 c         1 MOL      0.447300
     53 O9         -6.9750    1.3420   -2.4180 o         1 MOL     -0.502795
     54 H23        -5.7260    4.5530   -2.4160 hn        1 MOL      0.271773
     55 H24        -4.0420    2.2700   -1.9390 h1        1 MOL      0.081883
     56 H25        -4.5210    2.9030   -3.5500 h1        1 MOL      0.081883
     57 N5         -5.1340    0.2180   -3.0810 n         1 MOL     -0.299430
     58 C19        -5.8730   -1.0240   -3.2660 c3        1 MOL     -0.048449
     59 C20        -6.6120   -1.5780   -1.9670 c         1 MOL      0.373552
     60 O10        -7.5800   -2.2750   -2.1140 o         1 MOL     -0.514023
     61 C21        -4.9820   -2.1390   -3.8310 c3        1 MOL     -0.103756
     62 C22        -3.6180   -2.3460   -3.0610 c         1 MOL      0.660764
     63 O11        -2.6460   -1.6710   -3.4180 o         1 MOL     -0.671486
     64 O12        -3.6310   -3.1870   -2.1050 o         1 MOL     -0.671486
     65 H26        -4.1520    0.2120   -3.3110 hn        1 MOL      0.214150
     66 H27        -6.6050   -0.9360   -4.0700 h1        1 MOL      0.091051
     67 H28        -4.7830   -2.0840   -4.9020 hc        1 MOL      0.007658
     68 H29        -5.5520   -3.0540   -3.6970 hc        1 MOL      0.007658
     69 N6         -6.1460   -1.2780   -0.7480 n         1 MOL     -0.056267
     70 C23        -6.6920   -1.7870    0.4750 c3        1 MOL     -0.208084
     71 C24        -6.6580   -3.3000    0.7210 c         1 MOL      0.503130
     72 O13        -7.3610   -3.7540    1.6220 o         1 MOL     -0.572415
     73 H30        -5.2940   -0.7400   -0.7530 hn        1 MOL      0.213248
     74 H31        -7.7140   -1.4340    0.5900 h1        1 MOL      0.095087
     75 H32        -6.1480   -1.3130    1.3030 h1        1 MOL      0.095087
     76 N7         -5.7410   -4.0000    0.0340 n         1 MOL     -0.085524
     77 C25        -5.3800   -5.4440    0.2020 c3        1 MOL     -0.034442
     78 C26        -4.6710   -5.7350    1.5020 c         1 MOL      0.545483
     79 O14        -4.7050   -6.9150    1.8880 o         1 MOL     -0.527882
     80 C27        -6.5680   -6.3430   -0.1820 c3        1 MOL     -0.041013
     81 C28        -7.1410   -5.9650   -1.6210 c3        1 MOL     -0.134676
     82 C29        -8.0330   -7.0100   -2.4050 c         1 MOL      0.636821
     83 N8         -9.0420   -6.5710   -2.9820 n         1 MOL     -0.721745
     84 O15        -7.8500   -8.2010   -2.4650 o         1 MOL     -0.609510
     85 H33        -5.1460   -3.4010   -0.5090 hn        1 MOL      0.051989
     86 H34        -4.5450   -5.6510   -0.4740 h1        1 MOL      0.112812
     87 H35        -7.3660   -6.2240    0.5460 hc        1 MOL      0.042912
     88 H36        -6.3240   -7.4030   -0.2320 hc        1 MOL      0.042912
     89 H37        -6.3830   -5.7080   -2.3560 hc        1 MOL      0.051657
     90 H38        -7.7420   -5.0550   -1.5790 hc        1 MOL      0.051657
     91 H39        -9.2110   -5.5840   -3.0600 hn        1 MOL      0.336286
     92 H40        -9.5940   -7.2840   -3.4470 hn        1 MOL      0.336286
     93 N9         -4.0410   -4.7330    2.2170 n         1 MOL     -0.478738
     94 C30        -3.3710   -4.9070    3.5870 c3        1 MOL     -0.144898
     95 C31        -1.9850   -4.3350    3.5480 c         1 MOL      0.689280
     96 O16        -1.2600   -4.3750    4.5510 o         1 MOL     -0.607841
     97 C32        -4.3230   -4.3290    4.7020 c3        1 MOL      0.307750
     98 C33        -4.6910   -2.8860    4.4460 c3        1 MOL     -0.343352
     99 C34        -5.6010   -5.0760    4.7950 c3        1 MOL     -0.343352
    100 H41        -3.9960   -3.8140    1.8010 hn        1 MOL      0.304885
    101 H42        -3.2530   -5.9540    3.8580 h1        1 MOL      0.123445
    102 H43        -3.7950   -4.4200    5.6580 hc        1 MOL     -0.048588
    103 H44        -3.8000   -2.4340    4.0240 hc        1 MOL      0.083049
    104 H45        -5.5420   -2.8860    3.7630 hc        1 MOL      0.083049
    105 H46        -5.0130   -2.3650    5.3530 hc        1 MOL      0.083049
    106 H47        -6.2340   -4.7660    5.6200 hc        1 MOL      0.083049
    107 H48        -6.1590   -4.9840    3.8620 hc        1 MOL      0.083049
    108 H49        -5.3710   -6.1350    4.9310 hc        1 MOL      0.083049
    109 N10        -1.5970   -3.8150    2.3860 n         1 MOL     -0.579883
    110 C35        -0.4070   -3.0940    2.1880 c3        1 MOL      0.281448
    111 C36         0.2400   -3.4670    0.8480 c         1 MOL      0.581710
    112 O17        -0.4650   -3.9010   -0.0430 o         1 MOL     -0.512695
    113 C37        -0.7990   -1.6230    2.3740 c3        1 MOL     -0.193180
    114 C38         0.5190   -0.8050    2.6420 c         1 MOL      0.545993
    115 N11         0.6990   -0.2700    3.7630 n         1 MOL     -0.724510
    116 O18         1.3410   -0.6780    1.7350 o         1 MOL     -0.511784
    117 H50        -2.3160   -3.6280    1.6990 hn        1 MOL      0.265168
    118 H51         0.2720   -3.3820    2.9910 h1        1 MOL      0.034062
    119 H52        -1.4700   -1.4730    3.2150 hc        1 MOL      0.072877
    120 H53        -1.3000   -1.2260    1.4920 hc        1 MOL      0.072877
    121 H54        -0.0350   -0.2460    4.4480 hn        1 MOL      0.354597
    122 H55         1.5580    0.2340    3.9620 hn        1 MOL      0.354597
    123 N12         1.5300   -3.2060    0.6200 n         1 MOL     -0.681116
    124 C39         2.4310   -3.4010   -0.4900 c3        1 MOL      0.311573
    125 C40         3.8360   -3.3910    0.1550 c         1 MOL      0.601795
    126 O19         4.0740   -2.6980    1.1620 o         1 MOL     -0.602651
    127 C41         2.2970   -2.2840   -1.5600 c3        1 MOL     -0.284111
    128 C42         3.2720   -2.4250   -2.7640 ca        1 MOL      0.080809
    129 C43         4.5830   -1.9420   -2.5930 ca        1 MOL     -0.190727
    130 C44         2.9160   -3.1780   -3.8520 ca        1 MOL     -0.190727
    131 C45         5.5420   -2.1260   -3.6410 ca        1 MOL     -0.305729
    132 C46         3.9010   -3.4900   -4.8280 ca        1 MOL     -0.305729
    133 C47         5.1320   -2.9020   -4.7980 ca        1 MOL      0.412068
    134 O20         5.9710   -3.0540   -5.8280 oh        1 MOL     -0.528144
    135 H56         1.9070   -2.5310    1.2800 hn        1 MOL      0.299670
    136 H57         2.2390   -4.3290   -1.0140 h1        1 MOL      0.038565
    137 H58         2.5100   -1.3060   -1.1330 hc        1 MOL      0.135747
    138 H59         1.2680   -2.3390   -1.9170 hc        1 MOL      0.135747
    139 H60         4.8220   -1.4220   -1.6770 ha        1 MOL      0.173033
    140 H61         1.9300   -3.5970   -3.9930 ha        1 MOL      0.173033
    141 H62         6.4890   -1.6270   -3.6250 ha        1 MOL      0.151516
    142 H63         3.6650   -4.1880   -5.6250 ha        1 MOL      0.151516
    143 H64         6.7210   -2.4710   -5.6740 ho        1 MOL      0.374184
    144 N13         4.8400   -4.0360   -0.4360 n         1 MOL     -0.815805
    145 C48         6.2700   -3.9640    0.0770 c3        1 MOL      0.650902
    146 C49         7.2280   -3.2940   -0.9340 c         1 MOL      0.449824
    147 O21         7.7400   -3.9080   -1.8660 o         1 MOL     -0.525384
    148 C50         6.7090   -5.4200    0.4350 c3        1 MOL     -0.117437
    149 C51         8.1420   -5.3830    1.0490 c3        1 MOL     -0.270513
    150 C52         8.6450   -6.8030    1.1240 c         1 MOL      0.779152
    151 O22         8.1670   -7.6060    1.9330 o         1 MOL     -0.731351
    152 O23         9.6400   -7.0840    0.4460 o         1 MOL     -0.731351
    153 H65         4.6560   -4.6020   -1.2460 hn        1 MOL      0.356731
    154 H66         6.2590   -3.3440    0.9680 h1        1 MOL     -0.031692
    155 H67         6.7240   -5.9540   -0.5220 hc        1 MOL      0.024890
    156 H68         5.9930   -5.8700    1.1160 hc        1 MOL      0.024890
    157 H69         8.0560   -5.0370    2.0810 hc        1 MOL      0.065816
    158 H70         8.8460   -4.7050    0.5780 hc        1 MOL      0.065816
    159 N14         7.6690   -2.0370   -0.7960 n         1 MOL     -0.656202
    160 C53         7.2690   -1.0440    0.2550 c3        1 MOL      0.222400
    161 C54         7.6860   -1.3880    1.7110 c         1 MOL      0.307544
    162 O24         8.6710   -2.1060    1.9990 o         1 MOL     -0.475680
    163 C55         7.7620    0.4150   -0.0620 c3        1 MOL     -0.051576
    164 C56         7.1050    0.8720   -1.3100 c3        1 MOL     -0.009259
    165 C57         7.2500    2.4270   -1.4040 c         1 MOL      0.716270
    166 O25         8.3840    2.9290   -1.7040 o         1 MOL     -0.744786
    167 O26         6.2130    3.1150   -1.3270 o         1 MOL     -0.744786
    168 H71         8.3230   -1.6420   -1.4530 hn        1 MOL      0.383784
    169 H72         6.1790   -1.0890    0.2750 h1        1 MOL      0.036003
    170 H73         8.8370    0.4300   -0.2370 hc        1 MOL      0.008646
    171 H74         7.3370    1.0370    0.7290 hc        1 MOL      0.008646
    172 H75         6.0500    0.6190   -1.2510 hc        1 MOL     -0.006341
    173 H76         7.5780    0.4680   -2.2030 hc        1 MOL     -0.006341
    174 N15         6.9900   -0.8710    2.7290 n         1 MOL     -0.188341
    175 C58         7.3910   -0.8450    4.0970 c3        1 MOL     -0.427424
    176 H77         7.0020    0.0570    4.5720 h1        1 MOL      0.149816
    177 H78         6.9950   -1.7220    4.6090 h1        1 MOL      0.149816
    178 H79         8.4790   -0.8470    4.1580 h1        1 MOL      0.149816
    179 H80         6.0690   -0.5060    2.5400 hn        1 MOL      0.243630
    180 Ca1         5.4830    5.4380   -0.4360 Ca        1 MOL      1.774451
    181 O27         6.0970    8.0220   -0.4410 oh        1 MOL     -0.891161
    182 H81         5.6510    8.5750   -1.0840 ho        1 MOL      0.423384
    183 H82         7.0110    8.3150   -0.4800 ho        1 MOL      0.423384
    184 O28         7.3420    5.4550    1.6250 oh        1 MOL     -0.891161
    185 H83         7.2420    5.0200    2.4770 ho        1 MOL      0.423384
    186 H84         8.1230    5.9960    1.7210 ho        1 MOL      0.423384
    187 O29         5.0520    3.5430    1.4670 oh        1 MOL     -0.891161
    188 H85         4.3180    2.9490    1.3160 ho        1 MOL      0.423384
    189 H86         5.6400    3.0540    2.0370 ho        1 MOL      0.423384
    190 O30         7.9110    5.4920   -1.5510 oh        1 MOL     -0.891161
    191 H87         7.9000    4.5330   -1.5460 ho        1 MOL      0.423384
    192 H88         8.7690    5.7140   -1.9330 ho        1 MOL      0.423384
    193 O31         5.3180    5.8080   -3.2350 oh        1 MOL     -0.891161
    194 H89         4.5100    5.5370   -3.6660 ho        1 MOL      0.423384
    195 H90         6.0100    5.5370   -3.8390 ho        1 MOL      0.423384
@<TRIPOS>BOND
     1    1    2 1   
     2    1    4 1   
     3    1    5 1   
     4    1    6 1   
     5    2    3 2   
     6    2    7 1   
     7    7    8 1   
     8    7   15 1   
     9    8    9 1   
    10    8   11 1   
    11    8   16 1   
    12    9   10 2   
    13    9   19 1   
    14   11   12 1   
    15   11   17 1   
    16   11   18 1   
    17   12   13 1   
    18   12   14 1   
    19   19   20 1   
    20   19   27 1   
    21   20   21 1   
    22   20   23 1   
    23   20   28 1   
    24   21   22 2   
    25   21   38 1   
    26   23   24 1   
    27   23   25 1   
    28   23   29 1   
    29   24   26 1   
    30   24   30 1   
    31   24   31 1   
    32   25   32 1   
    33   25   33 1   
    34   25   34 1   
    35   26   35 1   
    36   26   36 1   
    37   26   37 1   
    38   38   39 1   
    39   38   46 1   
    40   39   40 1   
    41   39   42 1   
    42   39   47 1   
    43   40   41 2   
    44   40   50 1   
    45   42   43 1   
    46   42   48 1   
    47   42   49 1   
    48   43   44 1   
    49   43   45 1   
    50   50   51 1   
    51   50   54 1   
    52   51   52 1   
    53   51   55 1   
    54   51   56 1   
    55   52   53 2   
    56   52   57 1   
    57   57   58 1   
    58   57   65 1   
    59   58   59 1   
    60   58   61 1   
    61   58   66 1   
    62   59   60 2   
    63   59   69 1   
    64   61   62 1   
    65   61   67 1   
    66   61   68 1   
    67   62   63 1   
    68   62   64 1   
    69   69   70 1   
    70   69   73 1   
    71   70   71 1   
    72   70   74 1   
    73   70   75 1   
    74   71   72 2   
    75   71   76 1   
    76   76   77 1   
    77   76   85 1   
    78   77   78 1   
    79   77   80 1   
    80   77   86 1   
    81   78   79 2   
    82   78   93 1   
    83   80   81 1   
    84   80   87 1   
    85   80   88 1   
    86   81   82 1   
    87   81   89 1   
    88   81   90 1   
    89   82   83 1   
    90   82   84 2   
    91   83   91 1   
    92   83   92 1   
    93   93   94 1   
    94   93  100 1   
    95   94   95 1   
    96   94   97 1   
    97   94  101 1   
    98   95   96 2   
    99   95  109 1   
   100   97   98 1   
   101   97   99 1   
   102   97  102 1   
   103   98  103 1   
   104   98  104 1   
   105   98  105 1   
   106   99  106 1   
   107   99  107 1   
   108   99  108 1   
   109  109  110 1   
   110  109  117 1   
   111  110  111 1   
   112  110  113 1   
   113  110  118 1   
   114  111  112 2   
   115  111  123 1   
   116  113  114 1   
   117  113  119 1   
   118  113  120 1   
   119  114  115 1   
   120  114  116 2   
   121  115  121 1   
   122  115  122 1   
   123  123  124 1   
   124  123  135 1   
   125  124  125 1   
   126  124  127 1   
   127  124  136 1   
   128  125  126 2   
   129  125  144 1   
   130  127  128 1   
   131  127  137 1   
   132  127  138 1   
   133  128  129 ar  
   134  128  130 ar  
   135  129  131 ar  
   136  129  139 1   
   137  130  132 ar  
   138  130  140 1   
   139  131  133 ar  
   140  131  141 1   
   141  132  133 ar  
   142  132  142 1   
   143  133  134 1   
   144  134  143 1   
   145  144  145 1   
   146  144  153 1   
   147  145  146 1   
   148  145  148 1   
   149  145  154 1   
   150  146  147 2   
   151  146  159 1   
   152  148  149 1   
   153  148  155 1   
   154  148  156 1   
   155  149  150 1   
   156  149  157 1   
   157  149  158 1   
   158  150  151 1   
   159  150  152 1   
   160  159  160 1   
   161  159  168 1   
   162  160  161 1   
   163  160  163 1   
   164  160  169 1   
   165  161  162 2   
   166  161  174 1   
   167  163  164 1   
   168  163  170 1   
   169  163  171 1   
   170  164  165 1   
   171  164  172 1   
   172  164  173 1   
   173  165  166 1   
   174  165  167 1   
   175  174  175 1   
   176  174  179 1   
   177  175  176 1   
   178  175  177 1   
   179  175  178 1   
   180  181  182 1   
   181  181  183 1   
   182  184  185 1   
   183  184  186 1   
   184  187  188 1   
   185  187  189 1   
   186  190  191 1   
   187  190  192 1   
   188  193  194 1   
   189  193  195 1   
@<TRIPOS>SUBSTRUCTURE
     1 MOL         1 TEMP              0 ****  ****    0 ROOT
