@<TRIPOS>MOLECULE
MOL
  192   187     1     0     0
SMALL
resp


@<TRIPOS>ATOM
      1 C1          4.0380   -0.5820    6.5020 c3        1 MOL     -0.126560
      2 C2          3.8810   -0.2970    4.9640 c         1 MOL      0.761391
      3 O1          4.0380    0.8250    4.4880 o         1 MOL     -0.612660
      4 H1          3.6300   -1.5660    6.7330 hc        1 MOL      0.025686
      5 H2          5.0940   -0.5540    6.7710 hc        1 MOL      0.025686
      6 H3          3.4980    0.1760    7.0700 hc        1 MOL      0.025686
      7 N1          3.7920   -1.3040    4.1180 n         1 MOL     -0.680830
      8 C3          3.9230   -1.3320    2.6590 c3        1 MOL      0.376496
      9 C4          2.7130   -0.7500    1.9180 c         1 MOL     -0.075228
     10 O2          2.7910   -0.6100    0.7030 o         1 MOL     -0.100671
     11 C5          4.3190   -2.7600    2.1460 c3        1 MOL     -0.198727
     12 C6          5.4220   -3.5140    2.8910 c         1 MOL      0.720349
     13 O3          5.5050   -3.6920    4.1240 o         1 MOL     -0.695260
     14 O4          6.2090   -3.9950    2.0650 o         1 MOL     -0.695260
     15 H4          4.0990   -2.1650    4.5480 hn        1 MOL      0.279625
     16 H5          4.6950   -0.6220    2.3660 h1        1 MOL      0.121906
     17 H6          4.7100   -2.6100    1.1410 hc        1 MOL      0.005505
     18 H7          3.4440   -3.4020    2.1180 hc        1 MOL      0.005505
     19 N2          1.6020   -0.5170    2.6070 n         1 MOL     -0.147280
     20 C7          0.2490   -0.1380    1.9920 c3        1 MOL     -0.052045
     21 C8          0.2890    1.4480    1.7020 c         1 MOL      0.306871
     22 O5          0.7530    2.1770    2.5820 o         1 MOL     -0.480312
     23 C9         -0.9090   -0.5110    2.8480 c3        1 MOL      0.325937
     24 C10        -0.9590   -1.9870    2.9380 c3        1 MOL     -0.037330
     25 C11        -2.1080   -2.5480    3.7750 c3        1 MOL      0.093411
     26 C12        -2.0200   -2.2780    5.2850 c3        1 MOL     -0.140984
     27 N3         -0.8620   -3.0190    5.8590 n4        1 MOL     -0.344254
     28 H8          1.6730   -0.4890    3.6110 hn        1 MOL      0.198158
     29 H9          0.1200   -0.5540    0.9860 h1        1 MOL      0.103896
     30 H10        -1.8880   -0.2290    2.4350 hc        1 MOL     -0.062247
     31 H11        -0.8200   -0.1250    3.8590 hc        1 MOL     -0.062247
     32 H12        -0.0090   -2.2180    3.4040 hc        1 MOL     -0.045424
     33 H13        -0.9500   -2.3760    1.9120 hc        1 MOL     -0.045424
     34 H14        -2.1320   -3.6360    3.7760 hc        1 MOL      0.000138
     35 H15        -3.0970   -2.2760    3.4190 hc        1 MOL      0.000138
     36 H16        -3.0120   -2.5170    5.6730 hx        1 MOL      0.142345
     37 H17        -1.9330   -1.2070    5.4890 hx        1 MOL      0.142345
     38 H18        -0.9540   -4.0020    5.6720 hn        1 MOL      0.324572
     39 H19         0.0490   -2.6470    5.6450 hn        1 MOL      0.324572
     40 H20        -1.0080   -2.9940    6.8570 hn        1 MOL      0.324572
     41 N4         -0.1420    2.0670    0.5830 n         1 MOL     -0.109237
     42 C13        -0.6270    1.4990   -0.6690 c3        1 MOL     -0.354800
     43 C14        -1.6970    0.3740   -0.4890 c         1 MOL      0.578204
     44 O6         -1.5000   -0.7400   -0.8740 o         1 MOL     -0.307616
     45 C15         0.5430    1.2080   -1.6560 c3        1 MOL     -0.192798
     46 C16         1.3230    2.5130   -2.0020 c         1 MOL      0.789973
     47 O7          2.2820    2.3960   -2.7430 o         1 MOL     -0.716017
     48 O8          1.1220    3.6580   -1.5720 o         1 MOL     -0.716017
     49 H21         0.0990    3.0410    0.4970 hn        1 MOL      0.140995
     50 H22        -1.1960    2.2500   -1.2250 h1        1 MOL      0.060462
     51 H23         0.1370    0.8200   -2.5940 hc        1 MOL      0.101047
     52 H24         1.1910    0.4640   -1.1890 hc        1 MOL      0.101047
     53 N5         -2.8430    0.5990    0.0910 n         1 MOL     -0.132078
     54 C17        -3.5350    1.8960    0.2790 c3        1 MOL     -0.157398
     55 C18        -4.2650    2.0510    1.6060 c         1 MOL      0.348934
     56 O9         -3.8970    1.4390    2.6060 o         1 MOL     -0.543135
     57 H25        -3.3610   -0.2410    0.2660 hn        1 MOL      0.241141
     58 H26        -4.3030    1.9090   -0.4890 h1        1 MOL      0.080634
     59 H27        -2.8740    2.7520    0.1390 h1        1 MOL      0.080634
     60 N6         -5.2630    2.8890    1.6840 n         1 MOL     -0.148510
     61 C19        -5.7970    3.8520    0.7320 c3        1 MOL      0.031348
     62 C20        -7.0170    3.2640    0.0470 c         1 MOL      0.520050
     63 O10        -7.1950    3.4230   -1.1650 o         1 MOL     -0.564828
     64 C21        -6.1610    5.2270    1.2980 c3        1 MOL     -0.331566
     65 C22        -6.9890    5.1990    2.6000 c         1 MOL      0.660761
     66 O11        -7.1530    4.1030    3.1750 o         1 MOL     -0.661175
     67 O12        -7.5580    6.2320    3.0690 o         1 MOL     -0.661175
     68 H28        -5.8090    2.9090    2.5250 hn        1 MOL      0.185863
     69 H29        -5.0750    4.1080   -0.0410 h1        1 MOL      0.049081
     70 H30        -6.7340    5.7880    0.5460 hc        1 MOL      0.089899
     71 H31        -5.2090    5.7520    1.3480 hc        1 MOL      0.089899
     72 N7         -7.7810    2.4250    0.7360 n         1 MOL     -0.146290
     73 C23        -8.9430    1.6420    0.2160 c3        1 MOL     -0.393651
     74 C24        -8.5080    0.3800   -0.5320 c         1 MOL      0.570809
     75 O13        -9.3130   -0.1820   -1.2920 o         1 MOL     -0.576467
     76 H32        -7.7010    2.3700    1.7430 hn        1 MOL      0.207714
     77 H33        -9.5470    2.2300   -0.4650 h1        1 MOL      0.183570
     78 H34        -9.4790    1.2400    1.0760 h1        1 MOL      0.183570
     79 N8         -7.2930   -0.1020   -0.4140 n         1 MOL     -0.198882
     80 C25        -6.7360   -1.2870   -0.9620 c3        1 MOL     -0.099417
     81 C26        -5.4550   -1.8840   -0.3340 c         1 MOL      0.460214
     82 O14        -4.7500   -1.2320    0.4990 o         1 MOL     -0.503598
     83 C27        -6.3090   -0.9880   -2.4500 c3        1 MOL      0.455062
     84 C28        -5.4260    0.2020   -2.5980 c3        1 MOL     -0.098666
     85 O15        -7.4800   -0.8420   -3.2250 oh        1 MOL     -0.697830
     86 H35        -6.6690    0.4430    0.1680 hn        1 MOL      0.117198
     87 H36        -7.3790   -2.1720   -0.9330 h1        1 MOL      0.081957
     88 H37        -5.7940   -1.9140   -2.7200 h1        1 MOL     -0.025902
     89 H38        -8.1210   -0.2340   -2.8290 ho        1 MOL      0.446701
     90 H39        -4.6090    0.1780   -1.8870 hc        1 MOL      0.008299
     91 H40        -5.0430    0.2290   -3.6170 hc        1 MOL      0.008299
     92 H41        -6.1200    1.0330   -2.4390 hc        1 MOL      0.008299
     93 N9         -5.0730   -3.1480   -0.6400 n         1 MOL     -0.525524
     94 C29        -3.8510   -3.7600   -0.1990 c3        1 MOL     -0.011550
     95 C30        -2.9940   -4.0600   -1.4600 c         1 MOL      0.490971
     96 O16        -2.8120   -5.2420   -1.8750 o         1 MOL     -0.543963
     97 C31        -4.1430   -4.9170    0.8800 c3        1 MOL      0.232507
     98 C32        -5.1520   -4.4820    1.9880 c3        1 MOL      0.032138
     99 C33        -2.7830   -5.5450    1.2830 c3        1 MOL     -0.221016
    100 C34        -5.7010   -5.5980    2.8320 c3        1 MOL     -0.311509
    101 H42        -5.7400   -3.6800   -1.1770 hn        1 MOL      0.332383
    102 H43        -3.3040   -3.0710    0.4480 h1        1 MOL     -0.000737
    103 H44        -4.6470   -5.7500    0.3850 hc        1 MOL     -0.007726
    104 H45        -6.0180   -3.9780    1.5430 hc        1 MOL      0.040614
    105 H46        -4.7110   -3.8540    2.7540 hc        1 MOL      0.040614
    106 H47        -2.3230   -6.0880    0.4530 hc        1 MOL      0.048072
    107 H48        -2.0790   -4.8500    1.7120 hc        1 MOL      0.048072
    108 H49        -3.0850   -6.3330    1.9680 hc        1 MOL      0.048072
    109 H50        -6.1380   -5.2960    3.7820 hc        1 MOL      0.073801
    110 H51        -6.4630   -6.0090    2.1680 hc        1 MOL      0.073801
    111 H52        -4.9530   -6.3780    3.0190 hc        1 MOL      0.073801
    112 N10        -2.5550   -3.0140   -2.1490 n         1 MOL     -0.220183
    113 C35        -1.8520   -3.2410   -3.4820 c3        1 MOL     -0.128440
    114 C36        -0.3330   -3.3770   -3.2300 c         1 MOL      0.393775
    115 O17         0.4020   -4.0420   -3.9300 o         1 MOL     -0.499402
    116 C37        -2.1510   -2.1200   -4.4970 c3        1 MOL      0.146546
    117 C38        -1.8350   -0.6900   -4.1300 c3        1 MOL      0.186868
    118 O18        -3.5370   -2.2800   -4.9880 oh        1 MOL     -0.624275
    119 H53        -2.7770   -2.0850   -1.8420 hn        1 MOL      0.174722
    120 H54        -2.1880   -4.1780   -3.9290 h1        1 MOL      0.139075
    121 H55        -1.4540   -2.3350   -5.3040 h1        1 MOL      0.075643
    122 H56        -3.7830   -3.2040   -5.0320 ho        1 MOL      0.403545
    123 H57        -1.6620   -0.0430   -4.9840 hc        1 MOL     -0.023776
    124 H58        -2.5140   -0.2100   -3.4260 hc        1 MOL     -0.023776
    125 H59        -0.8300   -0.6550   -3.6990 hc        1 MOL     -0.023776
    126 N11         0.1530   -2.7060   -2.1250 n         1 MOL     -0.234241
    127 C39         1.4960   -2.7560   -1.7010 c3        1 MOL      0.326227
    128 C40         2.3450   -1.7890   -2.5380 c         1 MOL      0.330090
    129 O19         1.9760   -1.4740   -3.6920 o         1 MOL     -0.499176
    130 C41         1.9980   -4.1640   -1.6150 c3        1 MOL      0.362067
    131 C42         1.0230   -5.1880   -0.9840 c3        1 MOL     -0.331314
    132 O20         3.1940   -4.2120   -0.8940 oh        1 MOL     -0.656114
    133 H60        -0.5120   -2.1480   -1.6150 hn        1 MOL     -0.046862
    134 H61         1.5290   -2.3130   -0.6990 h1        1 MOL     -0.005629
    135 H62         2.2660   -4.4900   -2.6160 h1        1 MOL      0.007456
    136 H63         3.4870   -5.1250   -0.7740 ho        1 MOL      0.365860
    137 H64         0.7870   -4.9090    0.0470 hc        1 MOL      0.086063
    138 H65         0.2220   -5.3700   -1.6990 hc        1 MOL      0.086063
    139 H66         1.4530   -6.1950   -0.9840 hc        1 MOL      0.086063
    140 N12         3.5280   -1.3970   -2.0840 n         1 MOL     -0.281531
    141 C43         4.4390   -0.4990   -2.7820 c3        1 MOL      0.068618
    142 C44         5.1080    0.5240   -1.9280 c         1 MOL      0.814569
    143 O21         6.1290    0.9860   -2.3980 o         1 MOL     -0.632418
    144 C45         5.3360   -1.5030   -3.5870 c3        1 MOL     -0.507039
    145 C46         6.5470   -2.1300   -2.9600 c3        1 MOL      0.018267
    146 C47         6.4800   -3.0260   -1.7420 c3        1 MOL      0.170981
    147 C48         7.8350   -3.7510   -1.4360 c3        1 MOL     -0.163159
    148 N13         7.6430   -5.0220   -0.7190 n4        1 MOL     -0.162211
    149 H67         3.8470   -1.7600   -1.1920 hn        1 MOL      0.055246
    150 H68         3.8410    0.0620   -3.4990 h1        1 MOL      0.085430
    151 H69         5.7160   -0.8070   -4.3410 hc        1 MOL      0.176685
    152 H70         4.6680   -2.2850   -3.9430 hc        1 MOL      0.176685
    153 H71         7.3620   -1.4110   -2.8080 hc        1 MOL      0.004836
    154 H72         6.8640   -2.8470   -3.7150 hc        1 MOL      0.004836
    155 H73         5.6920   -3.7500   -1.9700 hc        1 MOL      0.018133
    156 H74         6.1690   -2.3580   -0.9310 hc        1 MOL      0.018133
    157 H75         8.4780   -3.0900   -0.8590 hx        1 MOL      0.116149
    158 H76         8.2580   -3.9890   -2.4030 hx        1 MOL      0.116149
    159 H77         8.5220   -5.3800   -0.3730 hn        1 MOL      0.269120
    160 H78         7.1340   -4.9690    0.1490 hn        1 MOL      0.269120
    161 H79         7.2670   -5.7590   -1.3050 hn        1 MOL      0.269120
    162 N14         4.5280    1.0350   -0.8270 n         1 MOL     -0.055320
    163 C49         5.0590    2.1310   -0.0350 c3        1 MOL     -1.478015
    164 C50         6.3160    1.8580    0.7320 c         1 MOL      0.906072
    165 O22         6.4220    0.9620    1.5530 o         1 MOL     -0.547371
    166 C51         3.9550    2.6900    0.8820 c3        1 MOL      1.435288
    167 C52         4.4570    3.9690    1.6030 c3        1 MOL     -1.316214
    168 C53         4.9890    5.0250    0.6320 c         1 MOL      1.076280
    169 O23         4.1310    5.7990    0.1690 o         1 MOL     -0.801964
    170 O24         6.1310    5.1230    0.2410 o         1 MOL     -0.801964
    171 H80         3.6340    0.6940   -0.5080 hn        1 MOL      0.100206
    172 H81         5.3160    2.9510   -0.7120 h1        1 MOL      0.356101
    173 H82         3.5720    1.9590    1.5950 hc        1 MOL     -0.278088
    174 H83         3.1520    3.1140    0.2820 hc        1 MOL     -0.278088
    175 H84         5.3030    3.7670    2.2560 hc        1 MOL      0.311842
    176 H85         3.6660    4.3970    2.2140 hc        1 MOL      0.311842
    177 N15         7.3500    2.6600    0.3910 n         1 MOL     -0.368875
    178 C54         8.5620    2.5540    1.1480 c3        1 MOL     -0.290790
    179 H86         9.1420    3.4690    1.0330 h1        1 MOL      0.113094
    180 H87         8.3230    2.4060    2.2000 h1        1 MOL      0.113094
    181 H88         9.1460    1.7070    0.7850 h1        1 MOL      0.113094
    182 H89         7.2940    3.4340   -0.2530 hn        1 MOL      0.414689
    183 Ca1         2.0600    6.0910   -1.2030 Ca        1 MOL      1.655521
    184 O25         1.0510    5.9780   -3.6580 oh        1 MOL     -0.770572
    185 H90         1.5110    5.4640   -4.3280 ho        1 MOL      0.395497
    186 H91         0.1560    5.6410   -3.6780 ho        1 MOL      0.395497
    187 O26         3.9350    4.5300   -2.5670 oh        1 MOL     -0.770572
    188 H92         4.8610    4.2880   -2.5690 ho        1 MOL      0.395497
    189 H93         3.4720    3.7010   -2.4990 ho        1 MOL      0.395497
    190 O27         3.5630    8.0810   -1.9850 oh        1 MOL     -0.770572
    191 H94         3.5130    8.7500   -2.6730 ho        1 MOL      0.395497
    192 H95         3.4020    8.5700   -1.1760 ho        1 MOL      0.395497
@<TRIPOS>BOND
     1    1    2 1   
     2    1    4 1   
     3    1    5 1   
     4    1    6 1   
     5    2    3 2   
     6    2    7 1   
     7    7    8 1   
     8    7   15 1   
     9    8    9 1   
    10    8   11 1   
    11    8   16 1   
    12    9   10 2   
    13    9   19 1   
    14   11   12 1   
    15   11   17 1   
    16   11   18 1   
    17   12   13 1   
    18   12   14 1   
    19   19   20 1   
    20   19   28 1   
    21   20   21 1   
    22   20   23 1   
    23   20   29 1   
    24   21   22 2   
    25   21   41 1   
    26   23   24 1   
    27   23   30 1   
    28   23   31 1   
    29   24   25 1   
    30   24   32 1   
    31   24   33 1   
    32   25   26 1   
    33   25   34 1   
    34   25   35 1   
    35   26   27 1   
    36   26   36 1   
    37   26   37 1   
    38   27   38 1   
    39   27   39 1   
    40   27   40 1   
    41   41   42 1   
    42   41   49 1   
    43   42   43 1   
    44   42   45 1   
    45   42   50 1   
    46   43   44 2   
    47   43   53 1   
    48   45   46 1   
    49   45   51 1   
    50   45   52 1   
    51   46   47 1   
    52   46   48 1   
    53   53   54 1   
    54   53   57 1   
    55   54   55 1   
    56   54   58 1   
    57   54   59 1   
    58   55   56 2   
    59   55   60 1   
    60   60   61 1   
    61   60   68 1   
    62   61   62 1   
    63   61   64 1   
    64   61   69 1   
    65   62   63 2   
    66   62   72 1   
    67   64   65 1   
    68   64   70 1   
    69   64   71 1   
    70   65   66 1   
    71   65   67 1   
    72   72   73 1   
    73   72   76 1   
    74   73   74 1   
    75   73   77 1   
    76   73   78 1   
    77   74   75 2   
    78   74   79 1   
    79   79   80 1   
    80   79   86 1   
    81   80   81 1   
    82   80   83 1   
    83   80   87 1   
    84   81   82 2   
    85   81   93 1   
    86   83   84 1   
    87   83   85 1   
    88   83   88 1   
    89   84   90 1   
    90   84   91 1   
    91   84   92 1   
    92   85   89 1   
    93   93   94 1   
    94   93  101 1   
    95   94   95 1   
    96   94   97 1   
    97   94  102 1   
    98   95   96 2   
    99   95  112 1   
   100   97   98 1   
   101   97   99 1   
   102   97  103 1   
   103   98  100 1   
   104   98  104 1   
   105   98  105 1   
   106   99  106 1   
   107   99  107 1   
   108   99  108 1   
   109  100  109 1   
   110  100  110 1   
   111  100  111 1   
   112  112  113 1   
   113  112  119 1   
   114  113  114 1   
   115  113  116 1   
   116  113  120 1   
   117  114  115 2   
   118  114  126 1   
   119  116  117 1   
   120  116  118 1   
   121  116  121 1   
   122  117  123 1   
   123  117  124 1   
   124  117  125 1   
   125  118  122 1   
   126  126  127 1   
   127  126  133 1   
   128  127  128 1   
   129  127  130 1   
   130  127  134 1   
   131  128  129 2   
   132  128  140 1   
   133  130  131 1   
   134  130  132 1   
   135  130  135 1   
   136  131  137 1   
   137  131  138 1   
   138  131  139 1   
   139  132  136 1   
   140  140  141 1   
   141  140  149 1   
   142  141  142 1   
   143  141  144 1   
   144  141  150 1   
   145  142  143 2   
   146  142  162 1   
   147  144  145 1   
   148  144  151 1   
   149  144  152 1   
   150  145  146 1   
   151  145  153 1   
   152  145  154 1   
   153  146  147 1   
   154  146  155 1   
   155  146  156 1   
   156  147  148 1   
   157  147  157 1   
   158  147  158 1   
   159  148  159 1   
   160  148  160 1   
   161  148  161 1   
   162  162  163 1   
   163  162  171 1   
   164  163  164 1   
   165  163  166 1   
   166  163  172 1   
   167  164  165 2   
   168  164  177 1   
   169  166  167 1   
   170  166  173 1   
   171  166  174 1   
   172  167  168 1   
   173  167  175 1   
   174  167  176 1   
   175  168  169 1   
   176  168  170 1   
   177  177  178 1   
   178  177  182 1   
   179  178  179 1   
   180  178  180 1   
   181  178  181 1   
   182  184  185 1   
   183  184  186 1   
   184  187  188 1   
   185  187  189 1   
   186  190  191 1   
   187  190  192 1   
@<TRIPOS>SUBSTRUCTURE
     1 MOL         1 TEMP              0 ****  ****    0 ROOT
