@<TRIPOS>MOLECULE
MOL
  192   187     1     0     0
SMALL
resp


@<TRIPOS>ATOM
      1 C1         -9.6320   -0.2170   -1.8120 c3        1 MOL     -0.468425
      2 C2         -8.3860   -0.3050   -0.9570 c         1 MOL      0.886252
      3 O1         -7.2720   -0.4150   -1.4400 o         1 MOL     -0.679204
      4 H1         -9.9240   -1.2170   -2.1320 hc        1 MOL      0.115344
      5 H2        -10.4400    0.2290   -1.2330 hc        1 MOL      0.115344
      6 H3         -9.4290    0.3990   -2.6880 hc        1 MOL      0.115344
      7 N1         -8.5710   -0.4530    0.3760 n         1 MOL     -0.843191
      8 C3         -7.4540   -0.3980    1.3640 c3        1 MOL      0.229765
      9 C4         -6.7760   -1.7850    1.5390 c         1 MOL      0.549340
     10 O2         -6.4010   -2.1260    2.6470 o         1 MOL     -0.478035
     11 C5         -8.0610    0.3420    2.6280 c3        1 MOL     -0.300651
     12 C6         -8.9250    1.5530    2.3260 c         1 MOL      0.803405
     13 O3         -8.6080    2.3420    1.4600 o         1 MOL     -0.672958
     14 O4         -9.9610    1.7240    3.0090 o         1 MOL     -0.672958
     15 H4         -9.4720   -0.4330    0.8190 hn        1 MOL      0.390570
     16 H5         -6.7190    0.2830    0.9180 h1        1 MOL      0.096081
     17 H6         -7.1540    0.6260    3.1550 hc        1 MOL      0.065841
     18 H7         -8.6440   -0.3740    3.1980 hc        1 MOL      0.065841
     19 N2         -6.4910   -2.5140    0.4110 n         1 MOL     -0.460061
     20 C7         -5.8800   -3.8110    0.2970 c3        1 MOL      0.061244
     21 C8         -4.4440   -3.9390    0.8310 c         1 MOL      0.398297
     22 O5         -4.1650   -4.8080    1.6500 o         1 MOL     -0.532664
     23 C9         -6.0200   -4.4250   -1.0720 c3        1 MOL     -0.059720
     24 C10        -7.4950   -4.7230   -1.5010 c3        1 MOL      0.015945
     25 C11        -7.5130   -5.6020   -2.7420 c3        1 MOL     -0.019935
     26 C12        -8.9870   -5.9450   -3.0870 c3        1 MOL      0.159312
     27 N3         -9.0860   -6.5740   -4.4260 n4        1 MOL     -0.259436
     28 H8         -6.8360   -2.1580   -0.4650 hn        1 MOL      0.232279
     29 H9         -6.4770   -4.4520    0.9560 h1        1 MOL      0.070989
     30 H10        -5.4610   -5.3640   -1.0700 hc        1 MOL      0.036595
     31 H11        -5.4480   -3.7930   -1.7580 hc        1 MOL      0.036595
     32 H12        -8.0180   -3.7900   -1.7210 hc        1 MOL      0.012758
     33 H13        -7.9740   -5.2460   -0.6660 hc        1 MOL      0.012758
     34 H14        -6.8930   -6.4840   -2.5880 hc        1 MOL      0.024449
     35 H15        -7.1690   -4.9270   -3.5220 hc        1 MOL      0.024449
     36 H16        -9.6180   -5.0700   -2.9760 hx        1 MOL      0.039102
     37 H17        -9.4430   -6.6600   -2.4030 hx        1 MOL      0.039102
     38 H18       -10.0340   -6.4020   -4.7490 hn        1 MOL      0.232981
     39 H19        -8.5000   -6.1840   -5.1550 hn        1 MOL      0.232981
     40 H20        -8.9380   -7.5690   -4.4790 hn        1 MOL      0.232981
     41 N4         -3.5500   -2.9890    0.5470 n         1 MOL     -0.238007
     42 C13        -3.6970   -1.9240   -0.4870 c3        1 MOL     -0.037349
     43 C14        -3.8560   -0.5400    0.2480 c         1 MOL      0.243920
     44 O6         -3.7770   -0.4550    1.4590 o         1 MOL     -0.428133
     45 C15        -2.4630   -1.9340   -1.3580 c3        1 MOL     -0.266518
     46 C16        -1.0740   -2.0250   -0.5900 c         1 MOL      0.775139
     47 O7         -0.8860   -1.2600    0.3800 o         1 MOL     -0.689994
     48 O8         -0.3640   -3.0170   -0.8690 o         1 MOL     -0.689994
     49 H21        -2.6770   -3.1680    1.0280 hn        1 MOL      0.308235
     50 H22        -4.5590   -2.0210   -1.1490 h1        1 MOL      0.158084
     51 H23        -2.4630   -1.0340   -1.9720 hc        1 MOL      0.032567
     52 H24        -2.5760   -2.8470   -1.9420 hc        1 MOL      0.032567
     53 N5         -4.1010    0.4800   -0.4840 n         1 MOL     -0.144888
     54 C17        -4.3700    1.8460   -0.0360 c3        1 MOL     -0.260962
     55 C18        -3.0980    2.5510    0.4550 c         1 MOL      0.631627
     56 O9         -1.9660    2.0590    0.3010 o         1 MOL     -0.744544
     57 H25        -4.1050    0.3930   -1.4900 hn        1 MOL      0.234345
     58 H26        -5.0530    1.7950    0.8140 h1        1 MOL      0.148695
     59 H27        -4.8860    2.4340   -0.7800 h1        1 MOL      0.148695
     60 N6         -3.2650    3.8360    0.9470 n         1 MOL     -0.497429
     61 C19        -2.2850    4.8000    1.4570 c3        1 MOL      0.240505
     62 C20        -2.7620    6.2010    1.1180 c         1 MOL      0.419815
     63 O10        -3.9670    6.3540    1.2780 o         1 MOL     -0.511956
     64 C21        -2.0380    4.6280    2.9980 c3        1 MOL     -0.323017
     65 C22        -1.5810    3.1810    3.3450 c         1 MOL      0.806464
     66 O11        -0.3700    2.9100    3.2800 o         1 MOL     -0.692592
     67 O12        -2.3850    2.3830    3.9370 o         1 MOL     -0.692592
     68 H28        -4.1760    4.2740    0.9830 hn        1 MOL      0.301360
     69 H29        -1.3720    4.7270    0.8620 h1        1 MOL      0.073452
     70 H30        -2.7820    4.9380    3.7230 hc        1 MOL      0.082450
     71 H31        -1.1730    5.2560    3.2400 hc        1 MOL      0.082450
     72 N7         -1.8880    7.1550    0.9210 n         1 MOL     -0.397220
     73 C23        -0.4360    7.0910    0.9500 c3        1 MOL      0.041973
     74 C24         0.2780    6.3340   -0.1630 c         1 MOL      0.599618
     75 O13        -0.1810    6.3320   -1.2580 o         1 MOL     -0.507399
     76 H32        -2.2680    8.0710    0.7270 hn        1 MOL      0.294529
     77 H33        -0.2240    6.6420    1.9160 h1        1 MOL      0.034259
     78 H34         0.1270    8.0250    1.0290 h1        1 MOL      0.034259
     79 N8          1.4460    5.8100    0.2250 n         1 MOL     -0.552458
     80 C25         2.2060    4.8890   -0.6340 c3        1 MOL     -0.049038
     81 C26         1.3740    3.6610   -1.0550 c         1 MOL      0.785928
     82 O14         0.8140    3.0540   -0.1430 o         1 MOL     -0.876401
     83 C27         3.5070    4.3990    0.0320 c3        1 MOL      0.666420
     84 C28         4.5400    5.5490    0.0370 c3        1 MOL     -0.405199
     85 O15         4.1330    3.4490   -0.7700 oh        1 MOL     -0.799507
     86 H35         1.6440    5.7540    1.2200 hn        1 MOL      0.271962
     87 H36         2.4660    5.4380   -1.5360 h1        1 MOL      0.073717
     88 H37         3.4280    4.1710    1.0950 h1        1 MOL     -0.033882
     89 H38         5.0110    3.1980   -0.4630 ho        1 MOL      0.406664
     90 H39         5.4570    5.1290    0.4640 hc        1 MOL      0.095103
     91 H40         4.5950    6.0050   -0.9520 hc        1 MOL      0.095103
     92 H41         4.1600    6.3440    0.6800 hc        1 MOL      0.095103
     93 N9          1.3650    3.2070   -2.3060 n         1 MOL     -0.415050
     94 C29         0.7050    1.9290   -2.9330 c3        1 MOL      0.026351
     95 C30         1.1500    0.5840   -2.3530 c         1 MOL      0.314616
     96 O16         0.9780    0.2740   -1.1410 o         1 MOL     -0.502492
     97 C31        -0.8040    2.1350   -3.0080 c3        1 MOL     -0.016583
     98 C32        -1.2690    3.3920   -3.7660 c3        1 MOL      0.081312
     99 C33        -1.4700    0.9240   -3.7100 c3        1 MOL     -0.462441
    100 C34        -2.6510    3.9010   -3.4900 c3        1 MOL     -0.110590
    101 H42         1.8240    3.7910   -2.9940 hn        1 MOL      0.244190
    102 H43         1.1930    1.9510   -3.9050 h1        1 MOL      0.068986
    103 H44        -1.2530    2.1910   -2.0240 hc        1 MOL      0.267739
    104 H45        -1.1240    3.2650   -4.8390 hc        1 MOL     -0.016500
    105 H46        -0.6050    4.2080   -3.4810 hc        1 MOL     -0.016500
    106 H47        -1.4140    0.8670   -4.7930 hc        1 MOL      0.124641
    107 H48        -1.1190   -0.0520   -3.3940 hc        1 MOL      0.124641
    108 H49        -2.5270    0.9430   -3.4570 hc        1 MOL      0.124641
    109 H50        -2.7890    3.9610   -2.4120 hc        1 MOL      0.024227
    110 H51        -2.8420    4.8790   -3.9450 hc        1 MOL      0.024227
    111 H52        -3.3760    3.2000   -3.8930 hc        1 MOL      0.024227
    112 N10         1.9720   -0.1560   -3.1080 n         1 MOL     -0.264793
    113 C35         2.5660   -1.4450   -2.7710 c3        1 MOL     -0.021920
    114 C36         4.1220   -1.4300   -2.7940 c         1 MOL      0.531284
    115 O17         4.7350   -2.5120   -2.7590 o         1 MOL     -0.557405
    116 C37         1.9580   -2.5960   -3.7060 c3        1 MOL      0.438120
    117 C38         2.1730   -2.5180   -5.1790 c3        1 MOL     -0.234587
    118 O18         0.6140   -2.6070   -3.6420 oh        1 MOL     -0.593584
    119 H53         2.1880    0.1570   -4.0400 hn        1 MOL      0.247803
    120 H54         2.2910   -1.7020   -1.7440 h1        1 MOL      0.065782
    121 H55         2.4430   -3.4850   -3.2880 h1        1 MOL     -0.015621
    122 H56         0.3480   -2.7640   -2.7270 ho        1 MOL      0.359647
    123 H57         1.7220   -1.6220   -5.5860 hc        1 MOL      0.047101
    124 H58         3.2480   -2.4260   -5.3170 hc        1 MOL      0.047101
    125 H59         1.7500   -3.3710   -5.7060 hc        1 MOL      0.047101
    126 N11         4.7910   -0.2430   -2.9750 n         1 MOL     -0.405622
    127 C39         6.2880    0.0090   -2.8920 c3        1 MOL      0.087092
    128 C40         6.8090   -0.4670   -1.5190 c         1 MOL      0.479837
    129 O19         7.1640    0.3850   -0.6860 o         1 MOL     -0.479362
    130 C41         6.5920    1.4940   -3.2230 c3        1 MOL      0.246992
    131 C42         8.0480    1.8360   -3.3820 c3        1 MOL     -0.304446
    132 O20         6.0150    1.8290   -4.4590 oh        1 MOL     -0.627836
    133 H60         4.1990    0.4960   -3.3290 hn        1 MOL      0.239732
    134 H61         6.7420   -0.7010   -3.5830 h1        1 MOL      0.078488
    135 H62         6.0800    2.1880   -2.5550 h1        1 MOL      0.065494
    136 H63         6.3710    2.6930   -4.6860 ho        1 MOL      0.400343
    137 H64         8.1630    2.8550   -3.7630 hc        1 MOL      0.084902
    138 H65         8.4560    1.8860   -2.3720 hc        1 MOL      0.084902
    139 H66         8.5870    1.1790   -4.0670 hc        1 MOL      0.084902
    140 N12         6.8430   -1.7930   -1.2350 n         1 MOL     -0.711116
    141 C43         6.6350   -2.3850    0.1010 c3        1 MOL      0.249879
    142 C44         5.3780   -1.8040    0.8630 c         1 MOL      0.621284
    143 O21         4.8670   -0.6920    0.5120 o         1 MOL     -0.519908
    144 C45         7.8860   -2.2130    0.9640 c3        1 MOL     -0.377780
    145 C46         9.2290   -2.3790    0.1620 c3        1 MOL      0.191297
    146 C47        10.4370   -2.2710    1.0410 c3        1 MOL     -0.036112
    147 C48        11.6600   -2.1130    0.1980 c3        1 MOL      0.073449
    148 N13        12.8610   -2.0540    1.0130 n4        1 MOL     -0.122721
    149 H67         6.5250   -2.3630   -2.0070 hn        1 MOL      0.366254
    150 H68         6.5330   -3.4400   -0.1250 h1        1 MOL      0.075139
    151 H69         7.8460   -2.9980    1.7210 hc        1 MOL      0.114041
    152 H70         7.9160   -1.2240    1.4030 hc        1 MOL      0.114041
    153 H71         9.2960   -1.6360   -0.6350 hc        1 MOL     -0.002245
    154 H72         9.1860   -3.3650   -0.3040 hc        1 MOL     -0.002245
    155 H73        10.4430   -3.1590    1.6830 hc        1 MOL      0.026377
    156 H74        10.3320   -1.3830    1.6630 hc        1 MOL      0.026377
    157 H75        11.5460   -1.2450   -0.4460 hx        1 MOL      0.042565
    158 H76        11.7330   -2.9860   -0.4550 hx        1 MOL      0.042565
    159 H77        12.8070   -1.2710    1.6480 hn        1 MOL      0.198396
    160 H78        13.1150   -2.8510    1.5870 hn        1 MOL      0.198396
    161 H79        13.6670   -1.9070    0.4150 hn        1 MOL      0.198396
    162 N14         4.8220   -2.6000    1.8120 n         1 MOL     -0.831803
    163 C49         3.5870   -2.2410    2.5650 c3        1 MOL      0.639838
    164 C50         2.3320   -2.2230    1.7520 c         1 MOL      0.151990
    165 O22         1.5650   -1.2820    1.8150 o         1 MOL     -0.517264
    166 C51         3.4160   -3.3390    3.6620 c3        1 MOL     -0.296010
    167 C52         4.5370   -3.1550    4.7100 c3        1 MOL     -0.193969
    168 C53         4.5010   -4.1740    5.8440 c         1 MOL      0.718893
    169 O23         4.6280   -3.7450    7.0100 o         1 MOL     -0.642846
    170 O24         4.5580   -5.4080    5.6370 o         1 MOL     -0.642846
    171 H80         5.3220   -3.4340    2.0880 hn        1 MOL      0.389564
    172 H81         3.6490   -1.2360    2.9800 h1        1 MOL     -0.012270
    173 H82         3.3250   -4.3590    3.2860 hc        1 MOL      0.115226
    174 H83         2.5030   -3.1500    4.2180 hc        1 MOL      0.115226
    175 H84         4.4640   -2.1570    5.1330 hc        1 MOL      0.032944
    176 H85         5.5280   -3.2300    4.2490 hc        1 MOL      0.032944
    177 N15         1.9550   -3.1420    0.8620 n         1 MOL     -0.153415
    178 C54         2.5020   -4.4540    0.5840 c3        1 MOL     -0.043788
    179 H86         2.4890   -4.6320   -0.4910 h1        1 MOL      0.025733
    180 H87         3.5290   -4.5040    0.9470 h1        1 MOL      0.025733
    181 H88         1.9020   -5.2120    1.0860 h1        1 MOL      0.025733
    182 H89         1.0530   -2.9430    0.4420 hn        1 MOL      0.306356
    183 Ca1         0.3140    1.0170    1.2940 Ca        1 MOL      1.812919
    184 O25         3.2250    1.3100    1.0640 oh        1 MOL     -0.863240
    185 H90         3.4750    1.8670    0.3270 ho        1 MOL      0.416463
    186 H91         3.6240    0.4640    0.8590 ho        1 MOL      0.416463
    187 O26         1.9150    1.0160    3.6920 oh        1 MOL     -0.863240
    188 H92         2.6390    1.6320    3.7230 ho        1 MOL      0.416463
    189 H93         1.9220    0.5900    4.5470 ho        1 MOL      0.416463
    190 O27        -1.5060    0.0560    3.2750 oh        1 MOL     -0.863240
    191 H94        -1.8200    0.8970    3.5990 ho        1 MOL      0.416463
    192 H95        -2.2600   -0.3340    2.8420 ho        1 MOL      0.416463
@<TRIPOS>BOND
     1    1    2 1   
     2    1    4 1   
     3    1    5 1   
     4    1    6 1   
     5    2    3 2   
     6    2    7 1   
     7    7    8 1   
     8    7   15 1   
     9    8    9 1   
    10    8   11 1   
    11    8   16 1   
    12    9   10 2   
    13    9   19 1   
    14   11   12 1   
    15   11   17 1   
    16   11   18 1   
    17   12   13 1   
    18   12   14 1   
    19   19   20 1   
    20   19   28 1   
    21   20   21 1   
    22   20   23 1   
    23   20   29 1   
    24   21   22 2   
    25   21   41 1   
    26   23   24 1   
    27   23   30 1   
    28   23   31 1   
    29   24   25 1   
    30   24   32 1   
    31   24   33 1   
    32   25   26 1   
    33   25   34 1   
    34   25   35 1   
    35   26   27 1   
    36   26   36 1   
    37   26   37 1   
    38   27   38 1   
    39   27   39 1   
    40   27   40 1   
    41   41   42 1   
    42   41   49 1   
    43   42   43 1   
    44   42   45 1   
    45   42   50 1   
    46   43   44 2   
    47   43   53 1   
    48   45   46 1   
    49   45   51 1   
    50   45   52 1   
    51   46   47 1   
    52   46   48 1   
    53   53   54 1   
    54   53   57 1   
    55   54   55 1   
    56   54   58 1   
    57   54   59 1   
    58   55   56 2   
    59   55   60 1   
    60   60   61 1   
    61   60   68 1   
    62   61   62 1   
    63   61   64 1   
    64   61   69 1   
    65   62   63 2   
    66   62   72 1   
    67   64   65 1   
    68   64   70 1   
    69   64   71 1   
    70   65   66 1   
    71   65   67 1   
    72   72   73 1   
    73   72   76 1   
    74   73   74 1   
    75   73   77 1   
    76   73   78 1   
    77   74   75 2   
    78   74   79 1   
    79   79   80 1   
    80   79   86 1   
    81   80   81 1   
    82   80   83 1   
    83   80   87 1   
    84   81   82 2   
    85   81   93 1   
    86   83   84 1   
    87   83   85 1   
    88   83   88 1   
    89   84   90 1   
    90   84   91 1   
    91   84   92 1   
    92   85   89 1   
    93   93   94 1   
    94   93  101 1   
    95   94   95 1   
    96   94   97 1   
    97   94  102 1   
    98   95   96 2   
    99   95  112 1   
   100   97   98 1   
   101   97   99 1   
   102   97  103 1   
   103   98  100 1   
   104   98  104 1   
   105   98  105 1   
   106   99  106 1   
   107   99  107 1   
   108   99  108 1   
   109  100  109 1   
   110  100  110 1   
   111  100  111 1   
   112  112  113 1   
   113  112  119 1   
   114  113  114 1   
   115  113  116 1   
   116  113  120 1   
   117  114  115 2   
   118  114  126 1   
   119  116  117 1   
   120  116  118 1   
   121  116  121 1   
   122  117  123 1   
   123  117  124 1   
   124  117  125 1   
   125  118  122 1   
   126  126  127 1   
   127  126  133 1   
   128  127  128 1   
   129  127  130 1   
   130  127  134 1   
   131  128  129 2   
   132  128  140 1   
   133  130  131 1   
   134  130  132 1   
   135  130  135 1   
   136  131  137 1   
   137  131  138 1   
   138  131  139 1   
   139  132  136 1   
   140  140  141 1   
   141  140  149 1   
   142  141  142 1   
   143  141  144 1   
   144  141  150 1   
   145  142  143 2   
   146  142  162 1   
   147  144  145 1   
   148  144  151 1   
   149  144  152 1   
   150  145  146 1   
   151  145  153 1   
   152  145  154 1   
   153  146  147 1   
   154  146  155 1   
   155  146  156 1   
   156  147  148 1   
   157  147  157 1   
   158  147  158 1   
   159  148  159 1   
   160  148  160 1   
   161  148  161 1   
   162  162  163 1   
   163  162  171 1   
   164  163  164 1   
   165  163  166 1   
   166  163  172 1   
   167  164  165 2   
   168  164  177 1   
   169  166  167 1   
   170  166  173 1   
   171  166  174 1   
   172  167  168 1   
   173  167  175 1   
   174  167  176 1   
   175  168  169 1   
   176  168  170 1   
   177  177  178 1   
   178  177  182 1   
   179  178  179 1   
   180  178  180 1   
   181  178  181 1   
   182  184  185 1   
   183  184  186 1   
   184  187  188 1   
   185  187  189 1   
   186  190  191 1   
   187  190  192 1   
@<TRIPOS>SUBSTRUCTURE
     1 MOL         1 TEMP              0 ****  ****    0 ROOT
