@<TRIPOS>MOLECULE
MOL
  178   175     1     0     0
SMALL
resp


@<TRIPOS>ATOM
      1 C1         -3.9410    7.7260   -0.0840 c3        1 MOL     -0.372700
      2 C2         -5.1740    6.8490   -0.1130 c         1 MOL      0.701081
      3 O1         -5.7410    6.5890   -1.1890 o         1 MOL     -0.616791
      4 H1         -4.1650    8.6500    0.4480 hc        1 MOL      0.090909
      5 H2         -3.1330    7.2010    0.4250 hc        1 MOL      0.090909
      6 H3         -3.6360    7.9590   -1.1040 hc        1 MOL      0.090909
      7 N1         -5.5440    6.1980    0.9900 n         1 MOL     -0.536302
      8 C3         -6.6590    5.2290    1.0250 c3        1 MOL      0.113248
      9 C4         -6.3320    3.8970    0.3220 c         1 MOL      0.584590
     10 O2         -5.9440    2.8650    0.9230 o         1 MOL     -0.531166
     11 C5         -7.0610    5.1060    2.5370 c3        1 MOL     -0.239229
     12 C6         -8.2170    4.1060    2.7300 c         1 MOL      0.742211
     13 O3         -8.9820    3.9210    1.7270 o         1 MOL     -0.724243
     14 O4         -8.4250    3.5730    3.8220 o         1 MOL     -0.724243
     15 H4         -5.0560    6.3870    1.8510 hn        1 MOL      0.289524
     16 H5         -7.5740    5.6640    0.6320 h1        1 MOL      0.044285
     17 H6         -7.3240    6.0490    3.0280 hc        1 MOL      0.030155
     18 H7         -6.1770    4.7890    3.0970 hc        1 MOL      0.030155
     19 N2         -6.7000    3.8040   -0.9620 n         1 MOL     -0.722481
     20 C7         -6.5040    2.6790   -1.8710 c3        1 MOL      0.711210
     21 C8         -5.0110    2.7110   -2.4180 c         1 MOL      0.271419
     22 O5         -4.2980    3.6850   -2.5220 o         1 MOL     -0.506175
     23 C9         -7.5920    2.6850   -2.8840 c3        1 MOL     -0.418940
     24 H8         -6.8910    4.6820   -1.4160 hn        1 MOL      0.343940
     25 H9         -6.7060    1.7570   -1.3180 h1        1 MOL     -0.023019
     26 H10        -7.4350    1.7740   -3.4650 hc        1 MOL      0.083607
     27 H11        -8.5500    2.5930   -2.3580 hc        1 MOL      0.083607
     28 H12        -7.5440    3.5900   -3.4920 hc        1 MOL      0.083607
     29 N3         -4.4530    1.5570   -2.7640 n         1 MOL     -0.224596
     30 C10        -4.9990    0.1530   -2.7510 c3        1 MOL     -0.123937
     31 C11        -4.4220   -0.6160   -1.4230 c         1 MOL      0.316609
     32 O6         -3.2470   -0.5730   -1.1360 o         1 MOL     -0.413632
     33 C12        -4.8150   -0.5730   -4.0890 c3        1 MOL     -0.221205
     34 C13        -3.3790   -0.4810   -4.5800 c         1 MOL      0.659322
     35 O7         -2.4240   -0.2340   -3.8310 o         1 MOL     -0.666383
     36 O8         -3.1890   -0.7810   -5.7260 o         1 MOL     -0.666383
     37 H13        -3.4620    1.6170   -2.9410 hn        1 MOL      0.165838
     38 H14        -6.0810    0.1740   -2.6730 h1        1 MOL      0.066981
     39 H15        -5.6030   -0.2000   -4.7440 hc        1 MOL      0.096390
     40 H16        -5.1040   -1.6150   -3.9660 hc        1 MOL      0.096390
     41 N4         -5.2860   -1.2690   -0.6680 n         1 MOL     -0.366881
     42 C14        -4.9690   -2.3190    0.3020 c3        1 MOL      0.064727
     43 C15        -4.5660   -1.6930    1.6270 c         1 MOL      0.496893
     44 O9         -4.5160   -0.4850    1.7220 o         1 MOL     -0.491235
     45 H17        -6.2640   -1.0320   -0.7980 hn        1 MOL      0.286774
     46 H18        -4.0860   -2.9080    0.0580 h1        1 MOL      0.039902
     47 H19        -5.7460   -3.0960    0.2880 h1        1 MOL      0.039902
     48 N5         -4.2560   -2.3490    2.7160 n         1 MOL     -0.277620
     49 C16        -4.4890   -3.7830    3.0060 c3        1 MOL      0.100355
     50 C17        -3.3500   -4.7040    2.4580 c         1 MOL      0.442935
     51 O10        -2.2220   -4.2140    2.3870 o         1 MOL     -0.465741
     52 C18        -4.6350   -4.0110    4.5450 c3        1 MOL     -0.323799
     53 C19        -5.6410   -3.1380    5.2900 c         1 MOL      0.580210
     54 N6         -6.8600   -3.5360    5.3330 n         1 MOL     -0.662195
     55 O11        -5.4020   -2.0080    5.6810 o         1 MOL     -0.492598
     56 H20        -3.8970   -1.8050    3.4940 hn        1 MOL      0.237215
     57 H21        -5.3920   -4.0480    2.4600 h1        1 MOL     -0.012737
     58 H22        -3.7080   -3.7510    5.0660 hc        1 MOL      0.092766
     59 H23        -4.7570   -5.0620    4.7800 hc        1 MOL      0.092766
     60 H24        -7.0770   -4.4940    5.0620 hn        1 MOL      0.334550
     61 H25        -7.5840   -2.9710    5.7390 hn        1 MOL      0.334550
     62 N7         -3.7130   -5.9730    2.2530 n         1 MOL     -0.325899
     63 C20        -2.8660   -6.9290    1.5310 c3        1 MOL     -0.276076
     64 C21        -2.5150   -6.4720    0.0520 c         1 MOL      0.618508
     65 O12        -2.7730   -7.1900   -0.9290 o         1 MOL     -0.570996
     66 H26        -4.6700   -6.2280    2.4310 hn        1 MOL      0.301055
     67 H27        -3.3530   -7.9130    1.5620 h1        1 MOL      0.141879
     68 H28        -1.8700   -7.0060    1.9650 h1        1 MOL      0.141879
     69 N8         -2.0840   -5.2560   -0.1260 n         1 MOL     -0.485734
     70 C22        -1.4310   -4.6460   -1.3140 c3        1 MOL     -0.207820
     71 C23        -0.4710   -3.5180   -0.8100 c         1 MOL      0.902529
     72 O13        -0.3590   -2.4800   -1.4520 o         1 MOL     -0.673552
     73 C24        -2.5140   -4.1640   -2.3460 c3        1 MOL      0.440743
     74 C25        -1.9970   -4.1250   -3.7830 c3        1 MOL     -0.072659
     75 O14        -3.5890   -5.0570   -2.4450 oh        1 MOL     -0.714622
     76 H29        -2.0010   -4.6700    0.6940 hn        1 MOL      0.250112
     77 H30        -0.8600   -5.3910   -1.8680 h1        1 MOL      0.142661
     78 H31        -2.8490   -3.1720   -2.0420 h1        1 MOL      0.038070
     79 H32        -3.3550   -5.8170   -1.8990 ho        1 MOL      0.421907
     80 H33        -1.3000   -3.2810   -3.7600 hc        1 MOL      0.017636
     81 H34        -1.4840   -5.0390   -4.0830 hc        1 MOL      0.017636
     82 H35        -2.8530   -3.9410   -4.4390 hc        1 MOL      0.017636
     83 N9          0.3270   -3.7020    0.2230 n         1 MOL     -0.686793
     84 C26         1.5200   -2.8330    0.5330 c3        1 MOL      0.044335
     85 C27         2.5350   -3.0530   -0.5750 c         1 MOL      0.373724
     86 O15         2.6720   -4.1860   -1.0660 o         1 MOL     -0.511905
     87 C28         2.0760   -3.0080    1.9680 c3        1 MOL     -0.030260
     88 C29         2.9000   -1.7480    2.3940 c3        1 MOL      0.272932
     89 C30         0.9980   -3.2650    3.0240 c3        1 MOL     -0.306791
     90 C31         3.8740   -2.0110    3.6130 c3        1 MOL     -0.119258
     91 H36         0.2500   -4.5900    0.7050 hn        1 MOL      0.344243
     92 H37         1.0690   -1.8360    0.5430 h1        1 MOL      0.242185
     93 H38         2.7430   -3.8730    2.0610 hc        1 MOL      0.072022
     94 H39         2.2560   -0.8820    2.5620 hc        1 MOL     -0.068194
     95 H40         3.6040   -1.3160    1.6830 hc        1 MOL     -0.068194
     96 H41         0.4770   -4.1730    2.7300 hc        1 MOL      0.080358
     97 H42         1.4420   -3.3810    4.0150 hc        1 MOL      0.080358
     98 H43         0.3140   -2.4200    2.9740 hc        1 MOL      0.080358
     99 H44         3.2880   -2.1630    4.5250 hc        1 MOL      0.004558
    100 H45         4.5360   -2.8340    3.3430 hc        1 MOL      0.004558
    101 H46         4.3670   -1.0650    3.8030 hc        1 MOL      0.004558
    102 N10         3.1590   -1.9350   -0.9790 n         1 MOL     -0.066539
    103 C32         4.0040   -1.8640   -2.1680 c3        1 MOL      0.098022
    104 C33         5.4300   -1.4400   -1.8910 c         1 MOL      0.410952
    105 O16         6.3590   -1.8850   -2.6120 o         1 MOL     -0.537186
    106 C34         3.4230   -0.9350   -3.2710 c3        1 MOL     -0.356501
    107 C35         2.0960   -1.4900   -3.7280 c         1 MOL      0.860318
    108 O17         2.2190   -2.4960   -4.4940 o         1 MOL     -0.726448
    109 O18         0.9840   -0.8930   -3.6050 o         1 MOL     -0.726448
    110 H47         2.9570   -1.0930   -0.4450 hn        1 MOL     -0.245869
    111 H48         4.1130   -2.9030   -2.4850 h1        1 MOL      0.088905
    112 H49         4.0810   -0.8640   -4.1410 hc        1 MOL      0.088452
    113 H50         3.1720    0.0440   -2.8610 hc        1 MOL      0.088452
    114 N11         5.7020   -0.6550   -0.8360 n         1 MOL     -0.517772
    115 C36         6.9700   -0.1070   -0.4800 c3        1 MOL      0.589855
    116 C37         6.8120    1.3780   -0.0120 c         1 MOL      0.062955
    117 O19         7.1850    1.6480    1.1210 o         1 MOL     -0.387926
    118 C38         7.7620   -1.1300    0.3730 c3        1 MOL     -0.435534
    119 C39         9.2600   -0.7690    0.5920 ca        1 MOL      0.188189
    120 C40        10.2000   -0.8610   -0.4320 ca        1 MOL     -0.195436
    121 C41         9.6620   -0.4230    1.8670 ca        1 MOL     -0.195436
    122 C42        11.5330   -0.4690   -0.1090 ca        1 MOL     -0.096612
    123 C43        11.0070   -0.1510    2.2210 ca        1 MOL     -0.096612
    124 C44        11.9400   -0.1820    1.1710 ca        1 MOL     -0.143356
    125 H51         4.9030   -0.3320   -0.3000 hn        1 MOL      0.315430
    126 H52         7.4750   -0.0800   -1.4480 h1        1 MOL     -0.049615
    127 H53         7.6220   -2.1120   -0.0770 hc        1 MOL      0.140421
    128 H54         7.2600   -1.1420    1.3410 hc        1 MOL      0.140421
    129 H55         9.8810   -1.1460   -1.4230 ha        1 MOL      0.130262
    130 H56         8.9780   -0.4810    2.7020 ha        1 MOL      0.130262
    131 H57        12.2350   -0.5250   -0.9250 ha        1 MOL      0.098019
    132 H58        11.2230    0.1480    3.2310 ha        1 MOL      0.098019
    133 H59        12.9830   -0.0310    1.3880 ha        1 MOL      0.094127
    134 N12         6.2320    2.3210   -0.8590 n         1 MOL      0.028160
    135 C45         6.2470    3.7680   -0.5570 c3        1 MOL      0.077491
    136 C46         5.3790    4.1790    0.6190 c         1 MOL      0.203544
    137 O20         5.6010    5.2280    1.1920 o         1 MOL     -0.480262
    138 C47         5.8630    4.4610   -1.9060 c3        1 MOL     -0.163009
    139 C48         6.2160    3.4140   -2.8790 c3        1 MOL     -0.059997
    140 C49         5.9000    2.1220   -2.2280 c3        1 MOL     -0.099174
    141 H60         7.2560    4.0400   -0.2640 h1        1 MOL      0.072155
    142 H61         4.7870    4.6310   -2.0230 hc        1 MOL      0.082174
    143 H62         6.4280    5.3870   -2.0060 hc        1 MOL      0.082174
    144 H63         5.7040    3.4570   -3.8420 hc        1 MOL      0.029085
    145 H64         7.2810    3.3360   -3.1000 hc        1 MOL      0.029085
    146 H65         4.8470    1.8460   -2.3290 h1        1 MOL      0.101963
    147 H66         6.5210    1.3180   -2.6120 h1        1 MOL      0.101963
    148 N13         4.4900    3.2870    1.0870 n         1 MOL     -0.017663
    149 C50         3.6890    3.4150    2.3330 c3        1 MOL     -0.204883
    150 C51         4.7600    3.4390    3.4530 c         1 MOL      0.507926
    151 O21         4.5750    4.2220    4.3570 o         1 MOL     -0.562300
    152 C52         2.8300    2.1270    2.5740 c3        1 MOL      0.476427
    153 C53         1.7220    1.8340    1.5440 c3        1 MOL     -0.542950
    154 C54         2.1950    1.2500    0.1840 c         1 MOL      0.504355
    155 O22         1.3710    1.1540   -0.7310 o         1 MOL     -0.530126
    156 O23         3.3930    0.8280   -0.0550 o         1 MOL     -0.530126
    157 H67         4.1800    2.6000    0.4030 hn        1 MOL      0.169147
    158 H68         3.1750    4.3670    2.3610 h1        1 MOL      0.114790
    159 H69         2.3550    2.3770    3.5250 hc        1 MOL     -0.085418
    160 H70         3.4530    1.2540    2.7560 hc        1 MOL     -0.085418
    161 H71         1.1670    2.7720    1.5690 hc        1 MOL      0.127773
    162 H72         1.0950    1.0480    1.9620 hc        1 MOL      0.127773
    163 N14         5.8580    2.6380    3.4710 n         1 MOL     -0.142105
    164 C55         6.8480    2.7530    4.5310 c3        1 MOL     -0.364152
    165 H73         7.8320    2.4970    4.1380 h1        1 MOL      0.126637
    166 H74         6.8620    3.7770    4.9060 h1        1 MOL      0.126637
    167 H75         6.5920    2.0710    5.3420 h1        1 MOL      0.126637
    168 H76         6.0830    2.1640    2.6020 hn        1 MOL      0.137137
    169 Ca1        -0.6920    0.1420   -1.9930 Ca        1 MOL      1.670092
    170 O24        -0.2130    1.7970   -4.0140 oh        1 MOL     -0.858316
    171 H77        -0.4800    2.7070   -4.0640 ho        1 MOL      0.421623
    172 H78        -0.5690    1.3900   -4.8020 ho        1 MOL      0.421623
    173 O25        -1.7540    2.4880   -1.0640 oh        1 MOL     -0.858316
    174 H79        -2.4640    2.6240   -0.4450 ho        1 MOL      0.421623
    175 H80        -1.7440    3.2830   -1.6020 ho        1 MOL      0.421623
    176 O26        -1.0830   -0.3250    0.7470 oh        1 MOL     -0.858316
    177 H81        -1.8950   -0.3160    1.2430 ho        1 MOL      0.421623
    178 H82        -0.6350    0.4850    0.9960 ho        1 MOL      0.421623
@<TRIPOS>BOND
     1    1    2 1   
     2    1    4 1   
     3    1    5 1   
     4    1    6 1   
     5    2    3 2   
     6    2    7 1   
     7    7    8 1   
     8    7   15 1   
     9    8    9 1   
    10    8   11 1   
    11    8   16 1   
    12    9   10 2   
    13    9   19 1   
    14   11   12 1   
    15   11   17 1   
    16   11   18 1   
    17   12   13 1   
    18   12   14 1   
    19   19   20 1   
    20   19   24 1   
    21   20   21 1   
    22   20   23 1   
    23   20   25 1   
    24   21   22 2   
    25   21   29 1   
    26   23   26 1   
    27   23   27 1   
    28   23   28 1   
    29   29   30 1   
    30   29   37 1   
    31   30   31 1   
    32   30   33 1   
    33   30   38 1   
    34   31   32 2   
    35   31   41 1   
    36   33   34 1   
    37   33   39 1   
    38   33   40 1   
    39   34   35 1   
    40   34   36 1   
    41   41   42 1   
    42   41   45 1   
    43   42   43 1   
    44   42   46 1   
    45   42   47 1   
    46   43   44 2   
    47   43   48 1   
    48   48   49 1   
    49   48   56 1   
    50   49   50 1   
    51   49   52 1   
    52   49   57 1   
    53   50   51 2   
    54   50   62 1   
    55   52   53 1   
    56   52   58 1   
    57   52   59 1   
    58   53   54 1   
    59   53   55 2   
    60   54   60 1   
    61   54   61 1   
    62   62   63 1   
    63   62   66 1   
    64   63   64 1   
    65   63   67 1   
    66   63   68 1   
    67   64   65 2   
    68   64   69 1   
    69   69   70 1   
    70   69   76 1   
    71   70   71 1   
    72   70   73 1   
    73   70   77 1   
    74   71   72 2   
    75   71   83 1   
    76   73   74 1   
    77   73   75 1   
    78   73   78 1   
    79   74   80 1   
    80   74   81 1   
    81   74   82 1   
    82   75   79 1   
    83   83   84 1   
    84   83   91 1   
    85   84   85 1   
    86   84   87 1   
    87   84   92 1   
    88   85   86 2   
    89   85  102 1   
    90   87   88 1   
    91   87   89 1   
    92   87   93 1   
    93   88   90 1   
    94   88   94 1   
    95   88   95 1   
    96   89   96 1   
    97   89   97 1   
    98   89   98 1   
    99   90   99 1   
   100   90  100 1   
   101   90  101 1   
   102  102  103 1   
   103  102  110 1   
   104  103  104 1   
   105  103  106 1   
   106  103  111 1   
   107  104  105 2   
   108  104  114 1   
   109  106  107 1   
   110  106  112 1   
   111  106  113 1   
   112  107  108 1   
   113  107  109 1   
   114  114  115 1   
   115  114  125 1   
   116  115  116 1   
   117  115  118 1   
   118  115  126 1   
   119  116  117 2   
   120  116  134 1   
   121  118  119 1   
   122  118  127 1   
   123  118  128 1   
   124  119  120 ar  
   125  119  121 ar  
   126  120  122 ar  
   127  120  129 1   
   128  121  123 ar  
   129  121  130 1   
   130  122  124 ar  
   131  122  131 1   
   132  123  124 ar  
   133  123  132 1   
   134  124  133 1   
   135  134  135 1   
   136  134  140 1   
   137  135  136 1   
   138  135  138 1   
   139  135  141 1   
   140  136  137 2   
   141  136  148 1   
   142  138  139 1   
   143  138  142 1   
   144  138  143 1   
   145  139  140 1   
   146  139  144 1   
   147  139  145 1   
   148  140  146 1   
   149  140  147 1   
   150  148  149 1   
   151  148  157 1   
   152  149  150 1   
   153  149  152 1   
   154  149  158 1   
   155  150  151 2   
   156  150  163 1   
   157  152  153 1   
   158  152  159 1   
   159  152  160 1   
   160  153  154 1   
   161  153  161 1   
   162  153  162 1   
   163  154  155 1   
   164  154  156 1   
   165  163  164 1   
   166  163  168 1   
   167  164  165 1   
   168  164  166 1   
   169  164  167 1   
   170  170  171 1   
   171  170  172 1   
   172  173  174 1   
   173  173  175 1   
   174  176  177 1   
   175  176  178 1   
@<TRIPOS>SUBSTRUCTURE
     1 MOL         1 TEMP              0 ****  ****    0 ROOT
