@<TRIPOS>MOLECULE
MOL
  182   178     1     0     0
SMALL
resp


@<TRIPOS>ATOM
      1 C1          1.0690   -3.0860    6.5840 c3        1 MOL     -0.489487
      2 C2          0.9800   -3.1740    5.0190 c         1 MOL      0.724475
      3 O1         -0.0830   -3.3450    4.4160 o         1 MOL     -0.563508
      4 H1          0.9650   -2.0470    6.8960 hc        1 MOL      0.137190
      5 H2          0.2700   -3.6790    7.0270 hc        1 MOL      0.137190
      6 H3          2.0350   -3.4690    6.9150 hc        1 MOL      0.137190
      7 N1          2.1250   -3.1290    4.3430 n         1 MOL     -0.518452
      8 C3          2.4030   -2.9630    2.8760 c3        1 MOL      0.067799
      9 C4          2.1850   -4.2370    2.0230 c         1 MOL      0.462392
     10 O2          2.1980   -5.3640    2.5700 o         1 MOL     -0.526465
     11 C5          3.6250   -2.1670    2.6320 c3        1 MOL      0.031596
     12 C6          3.5550   -1.3840    1.3280 c         1 MOL      0.484022
     13 O3          3.8820   -0.1490    1.3420 o         1 MOL     -0.616591
     14 O4          3.3080   -1.9860    0.2700 o         1 MOL     -0.616591
     15 H4          2.9370   -3.1530    4.9430 hn        1 MOL      0.282415
     16 H5          1.5740   -2.3000    2.6250 h1        1 MOL      0.000251
     17 H6          4.5600   -2.7400    2.6480 hc        1 MOL      0.030565
     18 H7          3.8320   -1.4450    3.4160 hc        1 MOL      0.030565
     19 N2          1.7230   -4.1200    0.7500 n         1 MOL     -0.286045
     20 C7          1.6760   -5.2330   -0.2110 c3        1 MOL      0.284422
     21 C8          2.8750   -5.2270   -1.2170 c         1 MOL      0.332489
     22 O5          3.3910   -6.3040   -1.4580 o         1 MOL     -0.537753
     23 C9          0.2900   -5.2700   -0.8790 c3        1 MOL     -0.106969
     24 C10         0.2200   -6.4010   -1.9330 c3        1 MOL     -0.146161
     25 C11        -1.2060   -6.6280   -2.4410 c3        1 MOL      0.025922
     26 C12        -1.4870   -7.8070   -3.3460 c3        1 MOL     -0.015960
     27 N3         -2.9490   -7.9720   -3.5310 n4        1 MOL     -0.227834
     28 H8          1.7800   -3.1530    0.4650 hn        1 MOL      0.150566
     29 H9          1.7780   -6.1850    0.3260 h1        1 MOL      0.045583
     30 H10         0.0190   -4.3150   -1.3270 hc        1 MOL      0.024193
     31 H11        -0.3940   -5.4090   -0.0470 hc        1 MOL      0.024193
     32 H12         0.5460   -7.3340   -1.4720 hc        1 MOL      0.068922
     33 H13         0.8990   -6.2780   -2.7760 hc        1 MOL      0.068922
     34 H14        -1.6250   -5.7610   -2.9420 hc        1 MOL      0.033543
     35 H15        -1.8110   -6.8020   -1.5430 hc        1 MOL      0.033543
     36 H16        -1.0500   -8.6390   -2.7950 hx        1 MOL      0.089952
     37 H17        -1.0010   -7.6770   -4.3230 hx        1 MOL      0.089952
     38 H18        -3.3830   -7.2960   -4.1500 hn        1 MOL      0.270483
     39 H19        -3.1270   -8.8350   -4.0400 hn        1 MOL      0.270483
     40 H20        -3.4590   -7.9420   -2.6520 hn        1 MOL      0.270483
     41 N4          3.3440   -4.0460   -1.7300 n         1 MOL     -0.049583
     42 C13         4.5670   -3.9530   -2.5210 c3        1 MOL      0.094115
     43 C14         5.8640   -3.5150   -1.7310 c         1 MOL      0.456939
     44 O6          6.9410   -3.5180   -2.2960 o         1 MOL     -0.537874
     45 C15         4.4170   -3.0150   -3.6750 c3        1 MOL     -0.287586
     46 C16         3.8870   -1.6910   -3.1540 c         1 MOL      0.883244
     47 O7          4.6500   -1.0740   -2.4390 o         1 MOL     -0.804291
     48 O8          2.6460   -1.3610   -3.2250 o         1 MOL     -0.804291
     49 H21         2.8670   -3.2310   -1.3580 hn        1 MOL     -0.074825
     50 H22         4.7880   -4.9450   -2.9200 h1        1 MOL      0.088311
     51 H23         3.5860   -3.3520   -4.2850 hc        1 MOL      0.065817
     52 H24         5.3720   -3.0080   -4.2070 hc        1 MOL      0.065817
     53 N5          5.7250   -3.1370   -0.4430 n         1 MOL     -0.269349
     54 C17         6.9350   -2.8070    0.3690 c3        1 MOL     -0.149542
     55 C18         7.2310   -1.3280    0.5810 c         1 MOL      0.583645
     56 O9          7.8790   -1.0240    1.6070 o         1 MOL     -0.577098
     57 H25         4.7930   -2.9070   -0.1510 hn        1 MOL      0.149525
     58 H26         7.8480   -3.1910   -0.0790 h1        1 MOL      0.104828
     59 H27         6.8620   -3.2740    1.3470 h1        1 MOL      0.104828
     60 N6          6.8110   -0.5100   -0.3740 n         1 MOL     -0.483064
     61 C19         7.1900    0.9140   -0.3910 c3        1 MOL      0.294211
     62 C20         5.9520    1.7960   -0.3130 c         1 MOL      0.281908
     63 O10         4.9290    1.5360   -0.9930 o         1 MOL     -0.469593
     64 C21         7.9350    1.1430   -1.7150 c3        1 MOL     -0.508479
     65 C22         8.4640    2.5880   -1.9980 c         1 MOL      0.754689
     66 N7          9.6740    2.9260   -1.5580 n         1 MOL     -0.863725
     67 O11         7.7990    3.3350   -2.7120 o         1 MOL     -0.567630
     68 H28         6.2070   -0.8930   -1.0770 hn        1 MOL      0.395533
     69 H29         7.8470    1.1090    0.4540 h1        1 MOL      0.009226
     70 H30         7.2440    0.7940   -2.4790 hc        1 MOL      0.168677
     71 H31         8.7680    0.4480   -1.6470 hc        1 MOL      0.168677
     72 H32        10.2640    2.1700   -1.2260 hn        1 MOL      0.390375
     73 H33        10.0190    3.8670   -1.6560 hn        1 MOL      0.390375
     74 N8          6.2480    2.9150    0.3310 n         1 MOL     -0.194616
     75 C23         5.5570    4.1960    0.0740 c3        1 MOL     -0.380956
     76 C24         4.2960    4.3180    0.9200 c         1 MOL      0.688028
     77 O12         4.2890    3.9410    2.0840 o         1 MOL     -0.505604
     78 H34         7.0740    2.8840    0.9150 hn        1 MOL      0.284017
     79 H35         5.2270    4.2580   -0.9610 h1        1 MOL      0.170364
     80 H36         6.2060    5.0300    0.3510 h1        1 MOL      0.170364
     81 N9          3.1770    4.7980    0.3080 n         1 MOL     -0.599495
     82 C25         1.8470    4.7960    0.8480 c3        1 MOL      0.025131
     83 C26         1.4970    3.3610    1.2440 c         1 MOL      0.569330
     84 O13         2.0640    2.4470    0.6140 o         1 MOL     -0.508730
     85 C27         0.7320    5.2090   -0.1000 c3        1 MOL     -0.020570
     86 C28         0.9210    6.5960   -0.6410 ca        1 MOL      0.115554
     87 C29         1.2260    7.6950    0.1440 ca        1 MOL     -0.202952
     88 C30         0.7420    6.7940   -2.0220 ca        1 MOL     -0.202952
     89 C31         1.4920    8.9450   -0.4380 ca        1 MOL     -0.203621
     90 C32         0.9140    8.0420   -2.5860 ca        1 MOL     -0.203621
     91 C33         1.3880    9.1380   -1.8140 ca        1 MOL      0.262929
     92 O14         1.5780   10.3850   -2.3310 oh        1 MOL     -0.439524
     93 H37         3.3480    5.2780   -0.5720 hn        1 MOL      0.309377
     94 H38         1.8230    5.3680    1.7770 h1        1 MOL      0.064628
     95 H39        -0.1840    5.1980    0.4930 hc        1 MOL      0.035372
     96 H40         0.5890    4.4590   -0.8780 hc        1 MOL      0.035372
     97 H41         1.3770    7.6360    1.2150 ha        1 MOL      0.135577
     98 H42         0.5350    6.0150   -2.7370 ha        1 MOL      0.135577
     99 H43         1.8920    9.7500    0.1520 ha        1 MOL      0.146621
    100 H44         0.7280    8.1110   -3.6540 ha        1 MOL      0.146621
    101 H45         1.7220   10.9540   -1.5660 ho        1 MOL      0.347087
    102 N10         0.5550    3.0720    2.1800 n         1 MOL     -0.673798
    103 C34         0.1900    1.7520    2.7510 c3        1 MOL      0.329264
    104 C35        -0.0190    0.6530    1.6870 c         1 MOL      0.158959
    105 O15         0.8880    0.0290    1.2070 o         1 MOL     -0.212867
    106 C36         1.2730    1.3020    3.7930 c3        1 MOL      0.198177
    107 C37         0.7010    0.1550    4.6510 c3        1 MOL     -0.279906
    108 C38         1.6790    2.3050    4.8780 c3        1 MOL     -0.128221
    109 C39        -0.6900    0.3200    5.4280 c3        1 MOL     -0.388660
    110 H46         0.1750    3.9220    2.5760 hn        1 MOL      0.333134
    111 H47        -0.7740    1.9810    3.2160 h1        1 MOL      0.019569
    112 H48         2.1780    1.0100    3.2670 hc        1 MOL      0.009333
    113 H49         1.4230   -0.1950    5.3970 hc        1 MOL      0.114634
    114 H50         0.6110   -0.6860    3.9660 hc        1 MOL      0.114634
    115 H51         2.2270    3.1480    4.4750 hc        1 MOL      0.025953
    116 H52         0.7680    2.7790    5.2250 hc        1 MOL      0.025953
    117 H53         2.2800    1.8200    5.6460 hc        1 MOL      0.025953
    118 H54        -1.0370   -0.6620    5.7790 hc        1 MOL      0.112755
    119 H55        -0.5140    1.0130    6.2540 hc        1 MOL      0.112755
    120 H56        -1.5260    0.5640    4.7720 hc        1 MOL      0.112755
    121 N11        -1.2710    0.2910    1.4210 n         1 MOL     -0.341341
    122 C40        -1.7410   -0.9380    0.8290 c3        1 MOL     -0.012979
    123 C41        -3.1850   -0.9550    0.2950 c         1 MOL      0.575599
    124 O16        -3.5490   -1.7050   -0.6640 o         1 MOL     -0.601466
    125 C42        -1.5060   -2.2300    1.6180 c3        1 MOL      0.337044
    126 O17        -2.1060   -2.2270    2.9300 oh        1 MOL     -0.648936
    127 H57        -1.9460    0.8760    1.8880 hn        1 MOL      0.253412
    128 H58        -1.1820   -1.0800   -0.0960 h1        1 MOL      0.044220
    129 H59        -0.4620   -2.5450    1.6420 h1        1 MOL     -0.011477
    130 H60        -1.8610   -3.1170    1.0890 h1        1 MOL     -0.011477
    131 H61        -1.5350   -2.7320    3.5180 ho        1 MOL      0.398137
    132 N12        -3.9930   -0.0280    0.7530 n         1 MOL     -0.523491
    133 C43        -5.3350    0.0560    0.2570 c3        1 MOL      0.204965
    134 C44        -5.5960    0.5500   -1.2240 c         1 MOL      0.783542
    135 O18        -4.6880    1.1610   -1.6610 o         1 MOL     -0.620859
    136 C45        -6.1590    0.8930    1.2210 c3        1 MOL     -0.361412
    137 H62        -3.6290    0.6370    1.4240 hn        1 MOL      0.295087
    138 H63        -5.7490   -0.9450    0.3330 h1        1 MOL      0.076369
    139 H64        -5.8940    1.9510    1.1780 hc        1 MOL      0.092977
    140 H65        -7.2310    0.9040    1.0310 hc        1 MOL      0.092977
    141 H66        -6.0210    0.4160    2.1940 hc        1 MOL      0.092977
    142 N13        -6.7780    0.3970   -1.7890 n         1 MOL     -0.753085
    143 C46        -7.8990   -0.4140   -1.3700 c3        1 MOL      0.277988
    144 C47        -9.3130    0.0940   -1.9940 c         1 MOL      0.269436
    145 O19        -9.4580    0.3780   -3.1830 o         1 MOL     -0.481485
    146 C48        -7.6200   -1.8130   -1.7700 c3        1 MOL     -0.039645
    147 H67        -6.8780    0.8120   -2.7080 hn        1 MOL      0.357005
    148 H68        -7.9190   -0.4200   -0.2840 h1        1 MOL     -0.020253
    149 H69        -6.6860   -2.1900   -1.3470 hc        1 MOL      0.008518
    150 H70        -8.3640   -2.5010   -1.3630 hc        1 MOL      0.008518
    151 H71        -7.5890   -1.9260   -2.8500 hc        1 MOL      0.008518
    152 N14       -10.3280    0.3010   -1.1650 n         1 MOL      0.024554
    153 C49       -10.3530   -0.0260    0.2380 c3        1 MOL     -0.324364
    154 C50        -9.7750    1.0510    1.1340 c         1 MOL      0.664238
    155 O20        -9.3560    0.7550    2.2290 o         1 MOL     -0.572839
    156 C51       -11.7950   -0.4910    0.7080 c3        1 MOL     -0.138650
    157 C52       -13.0030    0.4040    0.3680 c3        1 MOL     -0.146212
    158 C53       -13.2340    0.5750   -1.1520 c         1 MOL      0.726559
    159 O21       -12.8850    1.6940   -1.6370 o         1 MOL     -0.659534
    160 O22       -13.8560   -0.2760   -1.7980 o         1 MOL     -0.659534
    161 H72       -11.1900    0.7010   -1.5110 hn        1 MOL      0.125418
    162 H73        -9.7390   -0.9110    0.3920 h1        1 MOL      0.119336
    163 H74       -11.7160   -0.6660    1.7840 hc        1 MOL      0.069839
    164 H75       -11.9740   -1.4350    0.1880 hc        1 MOL      0.069839
    165 H76       -12.7600    1.3580    0.8380 hc        1 MOL      0.029463
    166 H77       -13.9470    0.1130    0.8330 hc        1 MOL      0.029463
    167 N15        -9.6930    2.3010    0.6340 n         1 MOL     -0.256359
    168 C54        -8.9910    3.4560    1.2110 c3        1 MOL     -0.232731
    169 H78        -9.2840    3.5750    2.2540 h1        1 MOL      0.103620
    170 H79        -7.9150    3.2930    1.1530 h1        1 MOL      0.103620
    171 H80        -9.2530    4.3560    0.6550 h1        1 MOL      0.103620
    172 H81       -10.2620    2.4480   -0.1900 hn        1 MOL      0.203919
    173 Ca1         2.7310    0.2210   -1.1370 Ca        1 MOL      1.744434
    174 O23         2.9400    1.9500   -3.5350 oh        1 MOL     -0.862353
    175 H82         2.8180    1.5600   -4.3960 ho        1 MOL      0.426500
    176 H83         3.4730    2.7220   -3.6890 ho        1 MOL      0.426500
    177 O24         0.5580    1.3350   -2.0210 oh        1 MOL     -0.862353
    178 H84         0.6530    2.0840   -2.6210 ho        1 MOL      0.426500
    179 H85        -0.3250    1.0130   -2.1880 ho        1 MOL      0.426500
    180 O25         0.8720   -1.8750   -1.4180 oh        1 MOL     -0.862353
    181 H86        -0.0310   -2.0650   -1.6790 ho        1 MOL      0.426500
    182 H87         1.3550   -1.8450   -2.2410 ho        1 MOL      0.426500
@<TRIPOS>BOND
     1    1    2 1   
     2    1    4 1   
     3    1    5 1   
     4    1    6 1   
     5    2    3 2   
     6    2    7 1   
     7    7    8 1   
     8    7   15 1   
     9    8    9 1   
    10    8   11 1   
    11    8   16 1   
    12    9   10 2   
    13    9   19 1   
    14   11   12 1   
    15   11   17 1   
    16   11   18 1   
    17   12   13 1   
    18   12   14 1   
    19   19   20 1   
    20   19   28 1   
    21   20   21 1   
    22   20   23 1   
    23   20   29 1   
    24   21   22 2   
    25   21   41 1   
    26   23   24 1   
    27   23   30 1   
    28   23   31 1   
    29   24   25 1   
    30   24   32 1   
    31   24   33 1   
    32   25   26 1   
    33   25   34 1   
    34   25   35 1   
    35   26   27 1   
    36   26   36 1   
    37   26   37 1   
    38   27   38 1   
    39   27   39 1   
    40   27   40 1   
    41   41   42 1   
    42   41   49 1   
    43   42   43 1   
    44   42   45 1   
    45   42   50 1   
    46   43   44 2   
    47   43   53 1   
    48   45   46 1   
    49   45   51 1   
    50   45   52 1   
    51   46   47 1   
    52   46   48 1   
    53   53   54 1   
    54   53   57 1   
    55   54   55 1   
    56   54   58 1   
    57   54   59 1   
    58   55   56 2   
    59   55   60 1   
    60   60   61 1   
    61   60   68 1   
    62   61   62 1   
    63   61   64 1   
    64   61   69 1   
    65   62   63 2   
    66   62   74 1   
    67   64   65 1   
    68   64   70 1   
    69   64   71 1   
    70   65   66 1   
    71   65   67 2   
    72   66   72 1   
    73   66   73 1   
    74   74   75 1   
    75   74   78 1   
    76   75   76 1   
    77   75   79 1   
    78   75   80 1   
    79   76   77 2   
    80   76   81 1   
    81   81   82 1   
    82   81   93 1   
    83   82   83 1   
    84   82   85 1   
    85   82   94 1   
    86   83   84 2   
    87   83  102 1   
    88   85   86 1   
    89   85   95 1   
    90   85   96 1   
    91   86   87 ar  
    92   86   88 ar  
    93   87   89 ar  
    94   87   97 1   
    95   88   90 ar  
    96   88   98 1   
    97   89   91 ar  
    98   89   99 1   
    99   90   91 ar  
   100   90  100 1   
   101   91   92 1   
   102   92  101 1   
   103  102  103 1   
   104  102  110 1   
   105  103  104 1   
   106  103  106 1   
   107  103  111 1   
   108  104  105 2   
   109  104  121 1   
   110  106  107 1   
   111  106  108 1   
   112  106  112 1   
   113  107  109 1   
   114  107  113 1   
   115  107  114 1   
   116  108  115 1   
   117  108  116 1   
   118  108  117 1   
   119  109  118 1   
   120  109  119 1   
   121  109  120 1   
   122  121  122 1   
   123  121  127 1   
   124  122  123 1   
   125  122  125 1   
   126  122  128 1   
   127  123  124 2   
   128  123  132 1   
   129  125  126 1   
   130  125  129 1   
   131  125  130 1   
   132  126  131 1   
   133  132  133 1   
   134  132  137 1   
   135  133  134 1   
   136  133  136 1   
   137  133  138 1   
   138  134  135 2   
   139  134  142 1   
   140  136  139 1   
   141  136  140 1   
   142  136  141 1   
   143  142  143 1   
   144  142  147 1   
   145  143  144 1   
   146  143  146 1   
   147  143  148 1   
   148  144  145 2   
   149  144  152 1   
   150  146  149 1   
   151  146  150 1   
   152  146  151 1   
   153  152  153 1   
   154  152  161 1   
   155  153  154 1   
   156  153  156 1   
   157  153  162 1   
   158  154  155 2   
   159  154  167 1   
   160  156  157 1   
   161  156  163 1   
   162  156  164 1   
   163  157  158 1   
   164  157  165 1   
   165  157  166 1   
   166  158  159 1   
   167  158  160 1   
   168  167  168 1   
   169  167  172 1   
   170  168  169 1   
   171  168  170 1   
   172  168  171 1   
   173  174  175 1   
   174  174  176 1   
   175  177  178 1   
   176  177  179 1   
   177  180  181 1   
   178  180  182 1   
@<TRIPOS>SUBSTRUCTURE
     1 MOL         1 TEMP              0 ****  ****    0 ROOT
