@<TRIPOS>MOLECULE
MOL
  175   173     1     0     0
SMALL
resp


@<TRIPOS>ATOM
      1 C1         -6.4030    7.8330    2.5970 c3        1 MOL     -0.346757
      2 C2         -7.0720    7.1560    1.3710 c         1 MOL      0.738869
      3 O1         -7.0470    7.6950    0.2460 o         1 MOL     -0.618834
      4 H1         -5.4340    7.3700    2.7840 hc        1 MOL      0.080802
      5 H2         -6.2650    8.8950    2.3950 hc        1 MOL      0.080802
      6 H3         -7.0390    7.7090    3.4730 hc        1 MOL      0.080802
      7 N1         -7.7310    6.0570    1.5670 n         1 MOL     -0.702971
      8 C3         -8.5380    5.3130    0.5620 c3        1 MOL      0.542405
      9 C4         -7.8100    4.1840   -0.2100 c         1 MOL      0.323239
     10 O2         -8.3330    3.0870   -0.4190 o         1 MOL     -0.450518
     11 C5         -9.8770    4.8380    1.2660 c3        1 MOL     -0.447997
     12 C6        -10.8670    4.3490    0.2300 c         1 MOL      0.692353
     13 O3        -11.8440    3.6910    0.6420 o         1 MOL     -0.705963
     14 O4        -10.7520    4.4300   -1.0020 o         1 MOL     -0.705963
     15 H4         -7.6830    5.7300    2.5220 hn        1 MOL      0.316359
     16 H5         -8.8550    6.0560   -0.1600 h1        1 MOL     -0.012400
     17 H6        -10.4300    5.5050    1.9380 hc        1 MOL      0.078389
     18 H7         -9.7030    4.0230    1.9640 hc        1 MOL      0.078389
     19 N2         -6.5610    4.4410   -0.6080 n         1 MOL     -0.446681
     20 C7         -5.7850    3.3710   -1.2250 c3        1 MOL      0.300820
     21 C8         -4.7970    2.6530   -0.2310 c         1 MOL      0.358284
     22 O5         -4.1160    3.3160    0.5710 o         1 MOL     -0.524636
     23 C9         -4.7830    4.1610   -2.0640 c3        1 MOL     -0.367911
     24 H8         -6.1430    5.3300   -0.3770 hn        1 MOL      0.262728
     25 H9         -6.3260    2.6630   -1.8610 h1        1 MOL      0.081518
     26 H10        -5.3330    4.5510   -2.9180 hc        1 MOL      0.098496
     27 H11        -4.3090    5.0130   -1.5800 hc        1 MOL      0.098496
     28 H12        -3.9920    3.4910   -2.4110 hc        1 MOL      0.098496
     29 N3         -4.4630    1.3700   -0.4660 n         1 MOL     -0.322821
     30 C10        -5.1390    0.3830   -1.4330 c3        1 MOL     -0.194068
     31 C11        -5.4280   -0.9560   -0.8330 c         1 MOL      0.487289
     32 O6         -4.7420   -1.4220    0.0550 o         1 MOL     -0.518328
     33 C12        -4.1900    0.2240   -2.6490 c3        1 MOL      0.033226
     34 C13        -2.7860   -0.3070   -2.2130 c         1 MOL      0.824720
     35 O7         -2.4970   -1.4660   -2.5460 o         1 MOL     -0.787625
     36 O8         -1.9360    0.3280   -1.5540 o         1 MOL     -0.787625
     37 H13        -3.6680    0.9950    0.0310 hn        1 MOL      0.313151
     38 H14        -6.0810    0.7300   -1.8790 h1        1 MOL      0.059150
     39 H15        -3.9380    1.1730   -3.1140 hc        1 MOL     -0.008698
     40 H16        -4.6050   -0.4240   -3.4170 hc        1 MOL     -0.008698
     41 N4         -6.5270   -1.5150   -1.1970 n         1 MOL     -0.287790
     42 C14        -7.0460   -2.8360   -0.8280 c3        1 MOL     -0.010237
     43 C15        -6.7350   -3.8180   -1.9270 c         1 MOL      0.536061
     44 O9         -7.4970   -3.9670   -2.8290 o         1 MOL     -0.540081
     45 H17        -7.1000   -0.9040   -1.7540 hn        1 MOL      0.304875
     46 H18        -8.1240   -2.7360   -0.7610 h1        1 MOL      0.059763
     47 H19        -6.5960   -3.1530    0.1090 h1        1 MOL      0.059763
     48 N5         -5.5230   -4.4290   -2.0190 n         1 MOL     -0.473651
     49 C16        -4.2470   -4.3760   -1.2940 c3        1 MOL     -0.037813
     50 C17        -4.3520   -5.0650    0.0840 c         1 MOL      0.663267
     51 O10        -4.9080   -6.1430    0.1830 o         1 MOL     -0.597048
     52 C18        -3.1290   -4.9770   -2.1740 c3        1 MOL     -0.218048
     53 C19        -1.8110   -4.9450   -1.4920 c         1 MOL      0.602739
     54 N6         -1.3010   -6.0630   -0.9940 n         1 MOL     -0.676203
     55 O11        -1.2340   -3.9260   -1.1650 o         1 MOL     -0.509857
     56 H20        -5.5900   -5.1490   -2.7300 hn        1 MOL      0.295371
     57 H21        -4.0340   -3.3330   -1.0930 h1        1 MOL      0.144291
     58 H22        -2.9980   -4.4470   -3.1230 hc        1 MOL      0.094238
     59 H23        -3.3220   -6.0050   -2.4820 hc        1 MOL      0.094238
     60 H24        -1.8200   -6.9240   -1.0600 hn        1 MOL      0.296043
     61 H25        -0.3340   -6.1060   -0.7140 hn        1 MOL      0.296043
     62 N7         -3.7410   -4.4390    1.0570 n         1 MOL     -0.405058
     63 C20        -3.5650   -4.9450    2.3880 c3        1 MOL     -0.165417
     64 C21        -2.1170   -5.3770    2.7080 c         1 MOL      0.536848
     65 O12        -2.0240   -6.1730    3.6470 o         1 MOL     -0.549496
     66 H26        -3.2380   -3.5870    0.8610 hn        1 MOL      0.315302
     67 H27        -4.2560   -5.7530    2.6380 h1        1 MOL      0.108121
     68 H28        -3.7040   -4.1450    3.1130 h1        1 MOL      0.108121
     69 N8         -1.0610   -4.9050    1.9350 n         1 MOL     -0.217346
     70 C22         0.3520   -5.1400    2.2690 c3        1 MOL     -0.290935
     71 C23         1.2140   -3.9920    1.8600 c         1 MOL      0.711922
     72 O13         0.9150   -3.3030    0.8600 o         1 MOL     -0.552619
     73 C24         0.8650   -6.4710    1.6580 c3        1 MOL      0.354137
     74 C25        -0.0370   -7.7320    1.4790 c3        1 MOL     -0.311746
     75 O14         1.2100   -6.1640    0.3150 oh        1 MOL     -0.559996
     76 H29        -1.2630   -4.3490    1.1200 hn        1 MOL      0.191314
     77 H30         0.4270   -5.0920    3.3530 h1        1 MOL      0.101776
     78 H31         1.7260   -6.8730    2.2120 h1        1 MOL     -0.013347
     79 H32         1.8300   -6.7960   -0.0630 ho        1 MOL      0.404013
     80 H33        -0.1170   -8.2750    2.4190 hc        1 MOL      0.085454
     81 H34        -1.0700   -7.4060    1.3630 hc        1 MOL      0.085454
     82 H35         0.3130   -8.4610    0.7440 hc        1 MOL      0.085454
     83 N9          2.1960   -3.7000    2.7150 n         1 MOL     -0.532453
     84 C26         3.2010   -2.6540    2.3520 c3        1 MOL      0.091086
     85 C27         4.0160   -3.1200    1.1510 c         1 MOL      0.434214
     86 O15         4.5660   -4.2210    1.2120 o         1 MOL     -0.551123
     87 C28         4.0790   -2.2050    3.5530 c3        1 MOL     -0.129186
     88 C29         5.0120   -1.0230    3.1340 c3        1 MOL      0.308910
     89 C30         3.2430   -1.6600    4.7170 c3        1 MOL     -0.194382
     90 C31         6.1260   -0.6370    4.1370 c3        1 MOL     -0.340782
     91 H36         2.3890   -4.3490    3.4650 hn        1 MOL      0.336190
     92 H37         2.7070   -1.7370    2.0460 h1        1 MOL      0.051919
     93 H38         4.5760   -3.1560    3.7360 hc        1 MOL      0.049772
     94 H39         4.3990   -0.1340    2.9900 hc        1 MOL     -0.034897
     95 H40         5.4750   -1.2370    2.1720 hc        1 MOL     -0.034897
     96 H41         2.6910   -2.4240    5.2560 hc        1 MOL      0.059847
     97 H42         3.7990   -1.1730    5.5140 hc        1 MOL      0.059847
     98 H43         2.5180   -0.8910    4.4390 hc        1 MOL      0.059847
     99 H44         6.6710    0.1800    3.6750 hc        1 MOL      0.070073
    100 H45         5.8520   -0.3330    5.1430 hc        1 MOL      0.070073
    101 H46         6.7710   -1.5080    4.0680 hc        1 MOL      0.070073
    102 N10         4.0780   -2.2920    0.1020 n         1 MOL     -0.311712
    103 C32         4.7770   -2.6300   -1.1470 c3        1 MOL      0.193105
    104 C33         5.6320   -1.4760   -1.7260 c         1 MOL      0.489563
    105 O16         5.9190   -1.4670   -2.8720 o         1 MOL     -0.517752
    106 C34         3.9260   -3.2960   -2.2930 c3        1 MOL     -0.165917
    107 C35         2.6470   -2.5920   -2.6170 c         1 MOL      0.797282
    108 O17         1.5720   -2.8480   -2.1240 o         1 MOL     -0.738007
    109 O18         2.6080   -1.6750   -3.4660 o         1 MOL     -0.738007
    110 H47         3.3930   -1.5550    0.0390 hn        1 MOL      0.168668
    111 H48         5.5490   -3.3960   -1.0180 h1        1 MOL      0.035053
    112 H49         3.7740   -4.3400   -2.0150 hc        1 MOL      0.032097
    113 H50         4.5240   -3.3890   -3.1970 hc        1 MOL      0.032097
    114 N11         6.0590   -0.5550   -0.8510 n         1 MOL     -0.516029
    115 C36         6.7330    0.6450   -1.2030 c3        1 MOL      0.490367
    116 C37         6.1280    1.9160   -0.6280 c         1 MOL      0.432523
    117 O19         5.9380    1.9060    0.5980 o         1 MOL     -0.589784
    118 C38         8.2530    0.4940   -0.9070 c3        1 MOL     -0.428154
    119 C39         9.0770    1.7920   -1.1920 ca        1 MOL      0.172525
    120 C40         9.3700    2.7610   -0.1860 ca        1 MOL     -0.197694
    121 C41         9.6950    1.9960   -2.4520 ca        1 MOL     -0.197694
    122 C42        10.1020    3.9290   -0.4220 ca        1 MOL     -0.102363
    123 C43        10.3380    3.2340   -2.6970 ca        1 MOL     -0.102363
    124 C44        10.6050    4.1640   -1.6800 ca        1 MOL     -0.135726
    125 H51         5.8010   -0.5770    0.1290 hn        1 MOL      0.192503
    126 H52         6.6150    0.7100   -2.2800 h1        1 MOL     -0.011248
    127 H53         8.5860   -0.2920   -1.5910 hc        1 MOL      0.133863
    128 H54         8.3750    0.1280    0.1080 hc        1 MOL      0.133863
    129 H55         8.9780    2.5780    0.8030 ha        1 MOL      0.126361
    130 H56         9.5950    1.2440   -3.2270 ha        1 MOL      0.126361
    131 H57        10.3830    4.6880    0.2810 ha        1 MOL      0.103136
    132 H58        10.6230    3.5480   -3.6860 ha        1 MOL      0.103136
    133 H59        11.1320    5.0970   -1.8300 ha        1 MOL      0.113854
    134 N12         5.9560    3.0460   -1.3200 n         1 MOL     -0.212374
    135 C45         5.9060    4.3800   -0.5910 c3        1 MOL      0.161894
    136 C46         4.7330    4.7280    0.2270 c         1 MOL      0.351997
    137 O20         4.7570    5.8500    0.7540 o         1 MOL     -0.527344
    138 C47         6.1360    5.4320   -1.7110 c3        1 MOL     -0.209122
    139 C48         6.7950    4.7460   -2.8230 c3        1 MOL      0.226046
    140 C49         6.2670    3.2400   -2.7390 c3        1 MOL     -0.119923
    141 H60         6.7240    4.4590    0.1310 h1        1 MOL      0.062019
    142 H61         5.1650    5.8220   -2.0100 hc        1 MOL      0.074045
    143 H62         6.8050    6.2380   -1.3990 hc        1 MOL      0.074045
    144 H63         6.6150    5.1800   -3.8060 hc        1 MOL     -0.037464
    145 H64         7.8820    4.7520   -2.7270 hc        1 MOL     -0.037464
    146 H65         5.3140    3.0820   -3.2610 h1        1 MOL      0.065031
    147 H66         7.0710    2.5700   -3.0300 h1        1 MOL      0.065031
    148 N13         3.7040    3.8720    0.3450 n         1 MOL     -0.172927
    149 C50         2.5280    3.9970    1.1730 c3        1 MOL     -0.193306
    150 C51         2.6570    4.2750    2.6270 c         1 MOL      0.472680
    151 O21         1.7560    4.8720    3.3190 o         1 MOL     -0.540186
    152 C52         1.6050    2.7460    0.9890 c3        1 MOL     -0.009556
    153 C53         2.1590    1.3320    1.5010 c3        1 MOL     -0.056555
    154 C54         1.3250    0.2400    0.8680 c         1 MOL      0.631312
    155 O22         1.6630   -0.2920   -0.2010 o         1 MOL     -0.704311
    156 O23         0.1770   -0.0160    1.3150 o         1 MOL     -0.704311
    157 H67         3.9520    2.9200    0.1300 hn        1 MOL      0.144654
    158 H68         1.9440    4.8580    0.8730 h1        1 MOL      0.144084
    159 H69         1.4000    2.6980   -0.0770 hc        1 MOL      0.061573
    160 H70         0.6310    2.8700    1.4650 hc        1 MOL      0.061573
    161 H71         2.0680    1.2740    2.5840 hc        1 MOL      0.031674
    162 H72         3.1780    1.2050    1.1220 hc        1 MOL      0.031674
    163 N14         3.7950    3.8550    3.1930 n         1 MOL     -0.165713
    164 C55         4.2090    4.0050    4.5880 c3        1 MOL     -0.233154
    165 H73         5.2950    3.9380    4.6530 h1        1 MOL      0.098451
    166 H74         3.8830    4.9750    4.9620 h1        1 MOL      0.098451
    167 H75         3.7610    3.2130    5.1880 h1        1 MOL      0.098451
    168 H76         4.4000    3.2790    2.6290 hn        1 MOL      0.226434
    169 Ca1        -0.2670   -1.5130   -0.9620 Ca        1 MOL      1.674041
    170 O24         0.1720   -0.5630   -3.5250 oh        1 MOL     -0.785052
    171 H77         0.3600    0.3700   -3.5850 ho        1 MOL      0.370602
    172 H78         1.0400   -0.9790   -3.4730 ho        1 MOL      0.370602
    173 O25        -2.3490   -1.9280    0.7870 oh        1 MOL     -0.785052
    174 H79        -3.2360   -1.6240    0.6070 ho        1 MOL      0.370602
    175 H80        -2.1350   -1.5430    1.6290 ho        1 MOL      0.370602
@<TRIPOS>BOND
     1    1    2 1   
     2    1    4 1   
     3    1    5 1   
     4    1    6 1   
     5    2    3 2   
     6    2    7 1   
     7    7    8 1   
     8    7   15 1   
     9    8    9 1   
    10    8   11 1   
    11    8   16 1   
    12    9   10 2   
    13    9   19 1   
    14   11   12 1   
    15   11   17 1   
    16   11   18 1   
    17   12   13 1   
    18   12   14 1   
    19   19   20 1   
    20   19   24 1   
    21   20   21 1   
    22   20   23 1   
    23   20   25 1   
    24   21   22 2   
    25   21   29 1   
    26   23   26 1   
    27   23   27 1   
    28   23   28 1   
    29   29   30 1   
    30   29   37 1   
    31   30   31 1   
    32   30   33 1   
    33   30   38 1   
    34   31   32 2   
    35   31   41 1   
    36   33   34 1   
    37   33   39 1   
    38   33   40 1   
    39   34   35 1   
    40   34   36 1   
    41   41   42 1   
    42   41   45 1   
    43   42   43 1   
    44   42   46 1   
    45   42   47 1   
    46   43   44 2   
    47   43   48 1   
    48   48   49 1   
    49   48   56 1   
    50   49   50 1   
    51   49   52 1   
    52   49   57 1   
    53   50   51 2   
    54   50   62 1   
    55   52   53 1   
    56   52   58 1   
    57   52   59 1   
    58   53   54 1   
    59   53   55 2   
    60   54   60 1   
    61   54   61 1   
    62   62   63 1   
    63   62   66 1   
    64   63   64 1   
    65   63   67 1   
    66   63   68 1   
    67   64   65 2   
    68   64   69 1   
    69   69   70 1   
    70   69   76 1   
    71   70   71 1   
    72   70   73 1   
    73   70   77 1   
    74   71   72 2   
    75   71   83 1   
    76   73   74 1   
    77   73   75 1   
    78   73   78 1   
    79   74   80 1   
    80   74   81 1   
    81   74   82 1   
    82   75   79 1   
    83   83   84 1   
    84   83   91 1   
    85   84   85 1   
    86   84   87 1   
    87   84   92 1   
    88   85   86 2   
    89   85  102 1   
    90   87   88 1   
    91   87   89 1   
    92   87   93 1   
    93   88   90 1   
    94   88   94 1   
    95   88   95 1   
    96   89   96 1   
    97   89   97 1   
    98   89   98 1   
    99   90   99 1   
   100   90  100 1   
   101   90  101 1   
   102  102  103 1   
   103  102  110 1   
   104  103  104 1   
   105  103  106 1   
   106  103  111 1   
   107  104  105 2   
   108  104  114 1   
   109  106  107 1   
   110  106  112 1   
   111  106  113 1   
   112  107  108 1   
   113  107  109 1   
   114  114  115 1   
   115  114  125 1   
   116  115  116 1   
   117  115  118 1   
   118  115  126 1   
   119  116  117 2   
   120  116  134 1   
   121  118  119 1   
   122  118  127 1   
   123  118  128 1   
   124  119  120 ar  
   125  119  121 ar  
   126  120  122 ar  
   127  120  129 1   
   128  121  123 ar  
   129  121  130 1   
   130  122  124 ar  
   131  122  131 1   
   132  123  124 ar  
   133  123  132 1   
   134  124  133 1   
   135  134  135 1   
   136  134  140 1   
   137  135  136 1   
   138  135  138 1   
   139  135  141 1   
   140  136  137 2   
   141  136  148 1   
   142  138  139 1   
   143  138  142 1   
   144  138  143 1   
   145  139  140 1   
   146  139  144 1   
   147  139  145 1   
   148  140  146 1   
   149  140  147 1   
   150  148  149 1   
   151  148  157 1   
   152  149  150 1   
   153  149  152 1   
   154  149  158 1   
   155  150  151 2   
   156  150  163 1   
   157  152  153 1   
   158  152  159 1   
   159  152  160 1   
   160  153  154 1   
   161  153  161 1   
   162  153  162 1   
   163  154  155 1   
   164  154  156 1   
   165  163  164 1   
   166  163  168 1   
   167  164  165 1   
   168  164  166 1   
   169  164  167 1   
   170  170  171 1   
   171  170  172 1   
   172  173  174 1   
   173  173  175 1   
@<TRIPOS>SUBSTRUCTURE
     1 MOL         1 TEMP              0 ****  ****    0 ROOT
