@<TRIPOS>MOLECULE
MOL
  189   185     1     0     0
SMALL
resp


@<TRIPOS>ATOM
      1 C1         -5.0480   -5.0570   -2.7500 c3        1 MOL     -0.444213
      2 C2         -5.4450   -4.0080   -1.6330 c         1 MOL      0.886770
      3 O1         -4.7410   -3.6610   -0.7030 o         1 MOL     -0.706414
      4 H1         -4.5270   -4.5450   -3.5580 hc        1 MOL      0.110213
      5 H2         -4.3950   -5.8160   -2.3210 hc        1 MOL      0.110213
      6 H3         -5.9490   -5.5300   -3.1400 hc        1 MOL      0.110213
      7 N1         -6.7490   -3.5630   -1.7650 n         1 MOL     -0.775223
      8 C3         -7.3780   -2.3930   -1.1500 c3        1 MOL      0.446136
      9 C4         -6.4020   -1.1430   -1.1450 c         1 MOL      0.187333
     10 O2         -5.7850   -0.7270   -0.1540 o         1 MOL     -0.600509
     11 C5         -8.0820   -2.6830    0.1710 c3        1 MOL     -0.190169
     12 C6         -7.2030   -3.4630    1.1730 c         1 MOL      0.812412
     13 O3         -6.4840   -2.8590    2.0030 o         1 MOL     -0.762361
     14 O4         -7.2800   -4.7110    1.1340 o         1 MOL     -0.762361
     15 H4         -7.3210   -4.0690   -2.4210 hn        1 MOL      0.332209
     16 H5         -8.1890   -2.0450   -1.7820 h1        1 MOL      0.005802
     17 H6         -8.9840   -3.2520   -0.0750 hc        1 MOL      0.036095
     18 H7         -8.3600   -1.7150    0.6110 hc        1 MOL      0.036095
     19 N2         -6.0440   -0.7370   -2.3690 n         1 MOL     -0.327355
     20 C7         -5.3050    0.4450   -2.9190 c3        1 MOL      0.024627
     21 C8         -5.9250    1.7490   -2.5690 c         1 MOL      0.356585
     22 O5         -6.0460    2.6690   -3.3560 o         1 MOL     -0.549726
     23 C9         -3.8010    0.3460   -2.5850 c3        1 MOL      0.122521
     24 C10        -2.9170    1.3390   -3.1910 c3        1 MOL     -0.170748
     25 C11        -3.1940   -1.0590   -2.8190 c3        1 MOL     -0.237082
     26 C12        -2.8750    1.5010   -4.6570 c3        1 MOL     -0.187009
     27 H8         -6.3750   -1.2960   -3.1540 hn        1 MOL      0.228681
     28 H9         -5.3320    0.3110   -4.0010 h1        1 MOL      0.076614
     29 H10        -3.7330    0.5490   -1.5090 hc        1 MOL     -0.095501
     30 H11        -1.9170    0.9960   -2.9250 hc        1 MOL      0.113824
     31 H12        -3.1120    2.3020   -2.7310 hc        1 MOL      0.113824
     32 H13        -3.6430   -1.6710   -2.0310 hc        1 MOL      0.067762
     33 H14        -3.4680   -1.4290   -3.8000 hc        1 MOL      0.067762
     34 H15        -2.1160   -1.1920   -2.7100 hc        1 MOL      0.067762
     35 H16        -2.3160    0.6870   -5.1200 hc        1 MOL      0.039580
     36 H17        -3.8860    1.5480   -5.0710 hc        1 MOL      0.039580
     37 H18        -2.4830    2.4720   -4.9370 hc        1 MOL      0.039580
     38 N3         -6.3150    1.9000   -1.3430 n         1 MOL     -0.056331
     39 C13        -6.8700    3.2060   -0.8330 c3        1 MOL     -0.056344
     40 C14        -5.8260    4.3290   -0.5660 c         1 MOL      0.651161
     41 O6         -5.8920    5.4240   -1.0690 o         1 MOL     -0.596323
     42 C15        -7.7500    2.9450    0.3830 c3        1 MOL     -0.157025
     43 C16        -8.7820    1.9250    0.0200 c         1 MOL      0.682507
     44 O7         -9.6990    2.2420   -0.7410 o         1 MOL     -0.714049
     45 O8         -8.6380    0.7190    0.4060 o         1 MOL     -0.714049
     46 H19        -6.2460    1.1150   -0.7140 hn        1 MOL      0.298857
     47 H20        -7.5550    3.6390   -1.5660 h1        1 MOL      0.068615
     48 H21        -8.2840    3.8400    0.7250 hc        1 MOL      0.034493
     49 H22        -7.1750    2.6960    1.2790 hc        1 MOL      0.034493
     50 N4         -4.8080    4.1520    0.3070 n         1 MOL     -0.601905
     51 C17        -4.4380    3.0000    1.0960 c3        1 MOL      0.014776
     52 C18        -4.4550    3.2540    2.6230 c         1 MOL      0.635068
     53 O9         -5.3070    3.9930    3.1370 o         1 MOL     -0.583648
     54 H23        -4.1670    4.9450    0.2750 hn        1 MOL      0.316525
     55 H24        -3.4160    2.8010    0.7820 h1        1 MOL      0.106144
     56 H25        -4.9080    2.0410    0.8880 h1        1 MOL      0.106144
     57 N5         -3.4900    2.8110    3.4400 n         1 MOL     -0.537622
     58 C19        -2.1480    2.1790    3.0450 c3        1 MOL      0.059977
     59 C20        -2.1790    1.0710    1.9710 c         1 MOL      0.192927
     60 O10        -3.2290    0.4100    1.9070 o         1 MOL     -0.458425
     61 C21        -1.3910    1.7810    4.2890 c3        1 MOL     -0.203290
     62 C22        -1.9410    0.5290    4.9320 c         1 MOL      0.712754
     63 O11        -3.1610    0.3350    5.1430 o         1 MOL     -0.683455
     64 O12        -1.1590   -0.4540    5.0990 o         1 MOL     -0.683455
     65 H26        -3.5560    2.9900    4.4330 hn        1 MOL      0.325037
     66 H27        -1.6480    3.0130    2.5530 h1        1 MOL      0.053414
     67 H28        -1.3110    2.6610    4.9450 hc        1 MOL      0.040140
     68 H29        -0.3330    1.5940    4.0990 hc        1 MOL      0.040140
     69 N6         -1.1690    0.7280    1.1890 n         1 MOL     -0.027902
     70 C23         0.1030    1.4070    1.1330 c3        1 MOL     -0.265590
     71 C24         0.2230    2.7290    0.4320 c         1 MOL      0.614226
     72 O13        -0.6180    3.0950   -0.3590 o         1 MOL     -0.524595
     73 H30        -1.3600    0.0030    0.5170 hn        1 MOL      0.169894
     74 H31         0.8190    0.7010    0.7000 h1        1 MOL      0.085982
     75 H32         0.4710    1.6140    2.1390 h1        1 MOL      0.085982
     76 N7          1.2910    3.4890    0.6870 n         1 MOL     -0.579548
     77 C25         1.5680    4.7550    0.0730 c3        1 MOL      0.136466
     78 C26         2.0090    4.6440   -1.3780 c         1 MOL      0.312769
     79 O14         1.9100    5.6050   -2.1390 o         1 MOL     -0.488679
     80 C27         2.5860    5.5410    0.8980 c3        1 MOL      0.107045
     81 C28         2.2160    5.9310    2.3140 c3        1 MOL     -0.167648
     82 C29         3.1690    6.8950    3.0530 c         1 MOL      0.680940
     83 N8          2.7860    7.3170    4.2180 n         1 MOL     -0.774852
     84 O15         4.1740    7.4140    2.5340 o         1 MOL     -0.579487
     85 H33         1.9090    3.2310    1.4360 hn        1 MOL      0.334113
     86 H34         0.6430    5.3380    0.0630 h1        1 MOL      0.103495
     87 H35         2.8180    6.4420    0.3360 hc        1 MOL     -0.007542
     88 H36         3.4650    4.9120    1.0320 hc        1 MOL     -0.007542
     89 H37         2.0410    5.0690    2.9570 hc        1 MOL      0.033386
     90 H38         1.2970    6.5090    2.2140 hc        1 MOL      0.033386
     91 H39         1.9410    6.9250    4.6330 hn        1 MOL      0.354298
     92 H40         3.3670    7.9520    4.7430 hn        1 MOL      0.354298
     93 N9          2.5830    3.5010   -1.7790 n         1 MOL     -0.247041
     94 C30         3.0030    3.2630   -3.1610 c3        1 MOL     -0.088989
     95 C31         4.3640    2.5320   -3.4160 c         1 MOL      0.463109
     96 O16         4.5500    2.2730   -4.6080 o         1 MOL     -0.520163
     97 C32         1.8640    2.5480   -4.0510 c3        1 MOL      0.180544
     98 C33         0.6270    3.4570   -4.1660 c3        1 MOL     -0.260366
     99 C34         1.3410    1.2490   -3.4190 c3        1 MOL     -0.260366
    100 H41         2.5760    2.7270   -1.1200 hn        1 MOL      0.251857
    101 H42         3.0930    4.2090   -3.6850 h1        1 MOL      0.106778
    102 H43         2.2020    2.3990   -5.0800 hc        1 MOL      0.021938
    103 H44         0.1000    3.5150   -3.2160 hc        1 MOL      0.069453
    104 H45         0.8780    4.4760   -4.4490 hc        1 MOL      0.069453
    105 H46        -0.0810    3.0910   -4.9000 hc        1 MOL      0.069453
    106 H47         1.0900    1.3850   -2.3580 hc        1 MOL      0.069453
    107 H48         0.4850    0.8920   -3.9980 hc        1 MOL      0.069453
    108 H49         2.1930    0.5890   -3.3550 hc        1 MOL      0.069453
    109 N10         5.1320    2.2220   -2.3370 n         1 MOL     -0.381089
    110 C35         6.3890    1.5260   -2.4260 c3        1 MOL      0.176720
    111 C36         6.3790    0.1400   -1.8760 c         1 MOL      0.685983
    112 O17         7.1910   -0.6120   -2.3420 o         1 MOL     -0.581639
    113 C37         7.4530    2.4620   -1.8330 c3        1 MOL     -0.332550
    114 C38         7.1340    2.7820   -0.3910 c         1 MOL      0.566214
    115 N11         7.9070    3.6830    0.2070 n         1 MOL     -0.729335
    116 O18         6.1150    2.4670    0.1870 o         1 MOL     -0.503044
    117 H50         4.7660    2.3220   -1.4050 hn        1 MOL      0.207216
    118 H51         6.5760    1.3200   -3.4830 h1        1 MOL      0.033453
    119 H52         7.5880    3.3710   -2.4270 hc        1 MOL      0.122759
    120 H53         8.3670    1.8600   -1.8830 hc        1 MOL      0.122759
    121 H54         8.5880    4.2440   -0.2940 hn        1 MOL      0.352161
    122 H55         7.6940    3.7970    1.1830 hn        1 MOL      0.352161
    123 N12         5.5510   -0.2030   -0.8460 n         1 MOL     -0.729782
    124 C39         5.7700   -1.4550   -0.0160 c3        1 MOL      0.426740
    125 C40         4.4920   -2.1150    0.3620 c         1 MOL      0.422710
    126 O19         3.4450   -1.4690    0.5840 o         1 MOL     -0.493745
    127 C41         6.6800   -1.1360    1.2160 c3        1 MOL     -0.076156
    128 C42         8.1130   -0.8090    0.9470 ca        1 MOL      0.036577
    129 C43         8.6340    0.4350    1.3610 ca        1 MOL     -0.117119
    130 C44         8.9410   -1.8270    0.4530 ca        1 MOL     -0.117119
    131 C45        10.0090    0.7190    1.2140 ca        1 MOL     -0.307450
    132 C46        10.2860   -1.5080    0.1650 ca        1 MOL     -0.307450
    133 C47        10.8090   -0.2240    0.5430 ca        1 MOL      0.377581
    134 O20        12.1070    0.0380    0.2280 oh        1 MOL     -0.545707
    135 H56         4.9740    0.5240   -0.4620 hn        1 MOL      0.297018
    136 H57         6.2780   -2.1530   -0.6760 h1        1 MOL     -0.018223
    137 H58         6.6760   -2.0530    1.8050 hc        1 MOL      0.038593
    138 H59         6.2700   -0.3700    1.8760 hc        1 MOL      0.038593
    139 H60         8.0650    1.2690    1.7290 ha        1 MOL      0.136995
    140 H61         8.5660   -2.7660    0.0890 ha        1 MOL      0.136995
    141 H62        10.4340    1.6740    1.4690 ha        1 MOL      0.146564
    142 H63        10.8770   -2.3200   -0.2140 ha        1 MOL      0.146564
    143 H64        12.4930   -0.7160   -0.2130 ho        1 MOL      0.384642
    144 N13         4.5970   -3.4660    0.5020 n         1 MOL     -0.570121
    145 C48         3.6400   -4.4670    1.0000 c3        1 MOL      0.073562
    146 C49         2.3690   -4.6760    0.1990 c         1 MOL      0.211350
    147 O21         1.5960   -5.5720    0.5380 o         1 MOL     -0.439691
    148 C50         3.3850   -4.2400    2.4940 c3        1 MOL      0.131625
    149 C51         4.5460   -4.3060    3.4470 c3        1 MOL     -0.190624
    150 C52         5.2200   -5.6770    3.4590 c         1 MOL      0.752965
    151 O22         4.5050   -6.7170    3.3580 o         1 MOL     -0.756783
    152 O23         6.4120   -5.6820    3.4280 o         1 MOL     -0.756783
    153 H65         5.5010   -3.8870    0.3420 hn        1 MOL      0.315121
    154 H66         4.1330   -5.4400    0.8890 h1        1 MOL      0.111910
    155 H67         2.6970   -5.0020    2.8410 hc        1 MOL      0.006177
    156 H68         2.8630   -3.3230    2.7420 hc        1 MOL      0.006177
    157 H69         4.2630   -4.1350    4.4880 hc        1 MOL      0.003049
    158 H70         5.2170   -3.4800    3.2190 hc        1 MOL      0.003049
    159 N14         2.1560   -3.8680   -0.8560 n         1 MOL     -0.132098
    160 C53         1.0580   -4.0330   -1.7450 c3        1 MOL     -0.091925
    161 C54         1.3900   -4.8260   -2.9190 c         1 MOL      0.526411
    162 O24         0.5770   -5.3110   -3.6570 o         1 MOL     -0.555264
    163 C55         0.5260   -2.6150   -2.1260 c3        1 MOL      0.129017
    164 C56         0.1150   -1.6400   -1.0400 c3        1 MOL      0.350521
    165 C57        -1.0180   -2.1700   -0.1260 c         1 MOL      0.395927
    166 O25        -2.1200   -1.5630   -0.0470 o         1 MOL     -0.541694
    167 O26        -0.9570   -3.2420    0.4950 o         1 MOL     -0.541694
    168 H71         2.8230   -3.1170   -0.9900 hn        1 MOL      0.202444
    169 H72         0.2310   -4.5380   -1.2490 h1        1 MOL      0.122877
    170 H73        -0.3190   -2.7050   -2.7960 hc        1 MOL     -0.078175
    171 H74         1.3110   -2.1130   -2.6870 hc        1 MOL     -0.078175
    172 H75        -0.1250   -0.7040   -1.5480 hc        1 MOL     -0.116567
    173 H76         0.9360   -1.4870   -0.3420 hc        1 MOL     -0.116567
    174 N15         2.6840   -4.9370   -3.2170 n         1 MOL     -0.265945
    175 C58         3.3470   -5.8290   -4.2580 c3        1 MOL     -0.201450
    176 H77         3.6440   -5.2260   -5.1150 h1        1 MOL      0.092938
    177 H78         4.2270   -6.3020   -3.8230 h1        1 MOL      0.092938
    178 H79         2.6430   -6.5970   -4.5800 h1        1 MOL      0.092938
    179 H80         3.3900   -4.5010   -2.6370 hn        1 MOL      0.183938
    180 Ca1        -4.0490   -2.1380    1.5090 Ca        1 MOL      1.786127
    181 O27        -4.5980   -1.3120    3.8860 oh        1 MOL     -0.881606
    182 H81        -4.8880   -1.7600    4.6860 ho        1 MOL      0.420173
    183 H82        -4.0840   -0.5730    4.2040 ho        1 MOL      0.420173
    184 O28        -4.1870   -4.7690    2.1670 oh        1 MOL     -0.881606
    185 H83        -5.1370   -4.8590    2.0960 ho        1 MOL      0.420173
    186 H84        -3.8370   -5.5190    1.6800 ho        1 MOL      0.420173
    187 O29        -1.9530   -2.2680    3.0540 oh        1 MOL     -0.881606
    188 H85        -1.7240   -1.5430    3.6280 ho        1 MOL      0.420173
    189 H86        -1.1680   -2.8280    3.0540 ho        1 MOL      0.420173
@<TRIPOS>BOND
     1    1    2 1   
     2    1    4 1   
     3    1    5 1   
     4    1    6 1   
     5    2    3 2   
     6    2    7 1   
     7    7    8 1   
     8    7   15 1   
     9    8    9 1   
    10    8   11 1   
    11    8   16 1   
    12    9   10 2   
    13    9   19 1   
    14   11   12 1   
    15   11   17 1   
    16   11   18 1   
    17   12   13 1   
    18   12   14 1   
    19   19   20 1   
    20   19   27 1   
    21   20   21 1   
    22   20   23 1   
    23   20   28 1   
    24   21   22 2   
    25   21   38 1   
    26   23   24 1   
    27   23   25 1   
    28   23   29 1   
    29   24   26 1   
    30   24   30 1   
    31   24   31 1   
    32   25   32 1   
    33   25   33 1   
    34   25   34 1   
    35   26   35 1   
    36   26   36 1   
    37   26   37 1   
    38   38   39 1   
    39   38   46 1   
    40   39   40 1   
    41   39   42 1   
    42   39   47 1   
    43   40   41 2   
    44   40   50 1   
    45   42   43 1   
    46   42   48 1   
    47   42   49 1   
    48   43   44 1   
    49   43   45 1   
    50   50   51 1   
    51   50   54 1   
    52   51   52 1   
    53   51   55 1   
    54   51   56 1   
    55   52   53 2   
    56   52   57 1   
    57   57   58 1   
    58   57   65 1   
    59   58   59 1   
    60   58   61 1   
    61   58   66 1   
    62   59   60 2   
    63   59   69 1   
    64   61   62 1   
    65   61   67 1   
    66   61   68 1   
    67   62   63 1   
    68   62   64 1   
    69   69   70 1   
    70   69   73 1   
    71   70   71 1   
    72   70   74 1   
    73   70   75 1   
    74   71   72 2   
    75   71   76 1   
    76   76   77 1   
    77   76   85 1   
    78   77   78 1   
    79   77   80 1   
    80   77   86 1   
    81   78   79 2   
    82   78   93 1   
    83   80   81 1   
    84   80   87 1   
    85   80   88 1   
    86   81   82 1   
    87   81   89 1   
    88   81   90 1   
    89   82   83 1   
    90   82   84 2   
    91   83   91 1   
    92   83   92 1   
    93   93   94 1   
    94   93  100 1   
    95   94   95 1   
    96   94   97 1   
    97   94  101 1   
    98   95   96 2   
    99   95  109 1   
   100   97   98 1   
   101   97   99 1   
   102   97  102 1   
   103   98  103 1   
   104   98  104 1   
   105   98  105 1   
   106   99  106 1   
   107   99  107 1   
   108   99  108 1   
   109  109  110 1   
   110  109  117 1   
   111  110  111 1   
   112  110  113 1   
   113  110  118 1   
   114  111  112 2   
   115  111  123 1   
   116  113  114 1   
   117  113  119 1   
   118  113  120 1   
   119  114  115 1   
   120  114  116 2   
   121  115  121 1   
   122  115  122 1   
   123  123  124 1   
   124  123  135 1   
   125  124  125 1   
   126  124  127 1   
   127  124  136 1   
   128  125  126 2   
   129  125  144 1   
   130  127  128 1   
   131  127  137 1   
   132  127  138 1   
   133  128  129 ar  
   134  128  130 ar  
   135  129  131 ar  
   136  129  139 1   
   137  130  132 ar  
   138  130  140 1   
   139  131  133 ar  
   140  131  141 1   
   141  132  133 ar  
   142  132  142 1   
   143  133  134 1   
   144  134  143 1   
   145  144  145 1   
   146  144  153 1   
   147  145  146 1   
   148  145  148 1   
   149  145  154 1   
   150  146  147 2   
   151  146  159 1   
   152  148  149 1   
   153  148  155 1   
   154  148  156 1   
   155  149  150 1   
   156  149  157 1   
   157  149  158 1   
   158  150  151 1   
   159  150  152 1   
   160  159  160 1   
   161  159  168 1   
   162  160  161 1   
   163  160  163 1   
   164  160  169 1   
   165  161  162 2   
   166  161  174 1   
   167  163  164 1   
   168  163  170 1   
   169  163  171 1   
   170  164  165 1   
   171  164  172 1   
   172  164  173 1   
   173  165  166 1   
   174  165  167 1   
   175  174  175 1   
   176  174  179 1   
   177  175  176 1   
   178  175  177 1   
   179  175  178 1   
   180  181  182 1   
   181  181  183 1   
   182  184  185 1   
   183  184  186 1   
   184  187  188 1   
   185  187  189 1   
@<TRIPOS>SUBSTRUCTURE
     1 MOL         1 TEMP              0 ****  ****    0 ROOT
