@<TRIPOS>MOLECULE
MOL
  189   185     1     0     0
SMALL
resp


@<TRIPOS>ATOM
      1 C1          4.6930    3.1940   -4.2270 c3        1 MOL     -0.295268
      2 C2          5.3640    2.7140   -2.9510 c         1 MOL      0.779313
      3 O1          4.7250    2.6580   -1.9200 o         1 MOL     -0.661210
      4 H1          5.3560    3.8830   -4.7490 hc        1 MOL      0.071027
      5 H2          4.4800    2.3390   -4.8690 hc        1 MOL      0.071027
      6 H3          3.7620    3.7040   -3.9790 hc        1 MOL      0.071027
      7 N1          6.5780    2.2750   -2.9790 n         1 MOL     -0.680308
      8 C3          7.2110    1.3250   -2.0190 c3        1 MOL      0.298401
      9 C4          6.2560    0.1830   -1.6220 c         1 MOL      0.258912
     10 O2          5.6310    0.1260   -0.6110 o         1 MOL     -0.332036
     11 C5          8.1180    1.9250   -0.8730 c3        1 MOL     -0.182855
     12 C6          7.5360    3.2140   -0.2550 c         1 MOL      0.822535
     13 O3          6.5690    3.1900    0.4920 o         1 MOL     -0.758768
     14 O4          8.1190    4.2550   -0.6220 o         1 MOL     -0.758768
     15 H4          7.0310    2.4830   -3.8620 hn        1 MOL      0.305386
     16 H5          7.8630    0.6900   -2.6060 h1        1 MOL      0.013170
     17 H6          9.1300    2.0100   -1.2690 hc        1 MOL      0.019291
     18 H7          8.1740    1.1110   -0.1430 hc        1 MOL      0.019291
     19 N2          5.9740   -0.6550   -2.6450 n         1 MOL     -0.341869
     20 C7          5.2370   -1.8530   -2.5720 c3        1 MOL      0.027501
     21 C8          5.8050   -2.8510   -1.5260 c         1 MOL      0.420636
     22 O5          6.3220   -3.8570   -1.9850 o         1 MOL     -0.577269
     23 C9          3.7130   -1.6180   -2.4360 c3        1 MOL      0.275783
     24 C10         2.8450   -2.9210   -2.4470 c3        1 MOL     -0.060705
     25 C11         3.1950   -0.6730   -3.5800 c3        1 MOL     -0.194407
     26 C12         2.7270   -3.7790   -3.7150 c3        1 MOL     -0.031175
     27 H8          6.4240   -0.5680   -3.5510 hn        1 MOL      0.250506
     28 H9          5.3710   -2.3930   -3.5050 h1        1 MOL      0.027352
     29 H10         3.5960   -1.0610   -1.5060 hc        1 MOL     -0.128111
     30 H11         1.9000   -2.5600   -2.0640 hc        1 MOL      0.039018
     31 H12         3.3510   -3.5860   -1.7480 hc        1 MOL      0.039018
     32 H13         3.7870    0.2370   -3.6510 hc        1 MOL      0.026532
     33 H14         3.1530   -1.1280   -4.5670 hc        1 MOL      0.026532
     34 H15         2.1800   -0.3550   -3.3100 hc        1 MOL      0.026532
     35 H16         2.1150   -4.6670   -3.5780 hc        1 MOL     -0.007366
     36 H17         2.3520   -3.1820   -4.5530 hc        1 MOL     -0.007366
     37 H18         3.7360   -4.0830   -4.0080 hc        1 MOL     -0.007366
     38 N3          5.9030   -2.6220   -0.2310 n         1 MOL      0.052750
     39 C13         6.5990   -3.5320    0.7520 c3        1 MOL      0.015183
     40 C14         5.7400   -4.7370    1.1600 c         1 MOL      0.439705
     41 O6          6.1560   -5.9530    0.9870 o         1 MOL     -0.593651
     42 C15         7.1820   -2.7720    1.9920 c3        1 MOL     -0.230736
     43 C16         8.0350   -1.6100    1.4810 c         1 MOL      0.830778
     44 O7          8.7850   -1.8540    0.4850 o         1 MOL     -0.726478
     45 O8          8.1400   -0.6310    2.2440 o         1 MOL     -0.726478
     46 H19         5.6670   -1.6960    0.0900 hn        1 MOL     -0.009954
     47 H20         7.4580   -3.9280    0.2140 h1        1 MOL      0.055335
     48 H21         7.9170   -3.3290    2.5750 hc        1 MOL      0.063472
     49 H22         6.3590   -2.3500    2.5610 hc        1 MOL      0.063472
     50 N4          4.4850   -4.6280    1.4860 n         1 MOL     -0.507758
     51 C17         3.6270   -3.4860    1.6630 c3        1 MOL      0.521051
     52 C18         2.5310   -3.7810    2.7180 c         1 MOL      0.320938
     53 O9          2.1240   -4.9550    2.9250 o         1 MOL     -0.565067
     54 H23         3.9800   -5.5100    1.4630 hn        1 MOL      0.282972
     55 H24         3.1530   -3.2090    0.7240 h1        1 MOL     -0.088288
     56 H25         4.3590   -2.7510    2.0130 h1        1 MOL     -0.088288
     57 N5          1.8930   -2.8370    3.3840 n         1 MOL     -0.342893
     58 C19         2.1890   -1.4280    3.4100 c3        1 MOL      0.021283
     59 C20         2.2380   -0.6870    2.0460 c         1 MOL      0.375038
     60 O10         3.1460   -0.0440    1.6770 o         1 MOL     -0.466727
     61 C21         3.3060   -1.1890    4.3980 c3        1 MOL     -0.238592
     62 C22         3.6540    0.3020    4.5130 c         1 MOL      0.727555
     63 O11         2.8010    1.1470    4.1770 o         1 MOL     -0.696845
     64 O12         4.8170    0.5900    4.7800 o         1 MOL     -0.696845
     65 H26         1.1050   -3.1820    3.9180 hn        1 MOL      0.275188
     66 H27         1.2980   -0.9450    3.8220 h1        1 MOL      0.101499
     67 H28         4.2410   -1.7300    4.2400 hc        1 MOL      0.058637
     68 H29         2.9670   -1.4900    5.3850 hc        1 MOL      0.058637
     69 N6          1.1130   -0.8180    1.3050 n         1 MOL     -0.221589
     70 C23        -0.1600   -1.4240    1.5880 c3        1 MOL     -0.083849
     71 C24        -0.4150   -2.8280    1.0240 c         1 MOL      0.360204
     72 O13         0.4750   -3.5650    0.6160 o         1 MOL     -0.452919
     73 H30         1.0880   -0.3060    0.4320 hn        1 MOL      0.268050
     74 H31        -0.8720   -0.7770    1.0740 h1        1 MOL      0.068325
     75 H32        -0.4880   -1.4820    2.6300 h1        1 MOL      0.068325
     76 N7         -1.6810   -3.1760    0.9780 n         1 MOL     -0.184407
     77 C25        -2.1320   -4.4170    0.3490 c3        1 MOL     -0.000935
     78 C26        -2.6430   -4.1890   -1.0660 c         1 MOL      0.490771
     79 O14        -2.6980   -5.2220   -1.7700 o         1 MOL     -0.547669
     80 C27        -3.1600   -5.0660    1.2890 c3        1 MOL      0.006139
     81 C28        -4.2340   -4.3120    2.0020 c3        1 MOL     -0.114743
     82 C29        -5.3170   -3.6930    1.1150 c         1 MOL      0.512652
     83 N8         -6.2530   -4.4680    0.8220 n         1 MOL     -0.589005
     84 O15        -5.1990   -2.5710    0.6830 o         1 MOL     -0.562182
     85 H33        -2.3420   -2.5760    1.4490 hn        1 MOL      0.189223
     86 H34        -1.2810   -5.0880    0.2060 h1        1 MOL      0.115813
     87 H35        -2.5690   -5.4750    2.1150 hc        1 MOL      0.011465
     88 H36        -3.6910   -5.8500    0.7520 hc        1 MOL      0.011465
     89 H37        -3.8030   -3.5720    2.6690 hc        1 MOL      0.044223
     90 H38        -4.6990   -5.0400    2.6740 hc        1 MOL      0.044223
     91 H39        -6.3190   -5.3510    1.2960 hn        1 MOL      0.329298
     92 H40        -6.8890   -4.0350    0.1580 hn        1 MOL      0.329298
     93 N9         -3.0180   -2.9750   -1.5000 n         1 MOL     -0.366639
     94 C30        -3.4550   -2.6780   -2.9190 c3        1 MOL     -0.093635
     95 C31        -4.6780   -1.8460   -3.0960 c         1 MOL      0.454082
     96 O16        -4.9960   -1.6010   -4.2590 o         1 MOL     -0.549885
     97 C32        -2.2550   -2.1560   -3.8030 c3        1 MOL      0.154728
     98 C33        -1.2550   -3.2900   -4.1950 c3        1 MOL     -0.267538
     99 C34        -1.6090   -1.0140   -2.9360 c3        1 MOL     -0.267538
    100 H41        -2.8840   -2.1960   -0.8750 hn        1 MOL      0.200248
    101 H42        -3.8320   -3.5970   -3.3510 h1        1 MOL      0.130810
    102 H43        -2.5640   -1.6680   -4.7310 hc        1 MOL      0.037159
    103 H44        -0.9650   -3.8890   -3.3300 hc        1 MOL      0.074845
    104 H45        -1.6830   -3.9240   -4.9780 hc        1 MOL      0.074845
    105 H46        -0.3460   -2.7490   -4.4380 hc        1 MOL      0.074845
    106 H47        -2.3370   -0.4330   -2.3620 hc        1 MOL      0.074845
    107 H48        -0.8140   -1.3260   -2.2690 hc        1 MOL      0.074845
    108 H49        -1.1280   -0.2700   -3.5630 hc        1 MOL      0.074845
    109 N10        -5.3980   -1.5160   -2.0120 n         1 MOL     -0.326198
    110 C35        -6.6470   -0.6820   -2.0670 c3        1 MOL      0.027710
    111 C36        -6.5590    0.7240   -1.5620 c         1 MOL      0.530644
    112 O17        -7.3100    1.6050   -1.9920 o         1 MOL     -0.585343
    113 C37        -7.7860   -1.4820   -1.4360 c3        1 MOL     -0.260549
    114 C38        -7.9520   -2.9440   -2.0350 c         1 MOL      0.652157
    115 N11        -7.7530   -3.1810   -3.3440 n         1 MOL     -0.761549
    116 O18        -8.1760   -3.9070   -1.3140 o         1 MOL     -0.574511
    117 H50        -5.1400   -1.7520   -1.0680 hn        1 MOL      0.304832
    118 H51        -6.8880   -0.6120   -3.1280 h1        1 MOL      0.069497
    119 H52        -8.7730   -1.0310   -1.4120 hc        1 MOL      0.103457
    120 H53        -7.4290   -1.5490   -0.4080 hc        1 MOL      0.103457
    121 H54        -7.4470   -2.5330   -4.0560 hn        1 MOL      0.361802
    122 H55        -7.7300   -4.1520   -3.5990 hn        1 MOL      0.361802
    123 N12        -5.6400    0.9820   -0.7160 n         1 MOL     -0.362558
    124 C39        -5.6580    2.0640    0.1950 c3        1 MOL      0.247303
    125 C40        -4.3300    2.8630    0.2660 c         1 MOL      0.374114
    126 O19        -3.2820    2.2210    0.3220 o         1 MOL     -0.460268
    127 C41        -6.2160    1.7630    1.5840 c3        1 MOL     -0.201828
    128 C42        -7.5210    0.9590    1.7760 ca        1 MOL      0.072419
    129 C43        -8.7560    1.5870    1.4270 ca        1 MOL     -0.120475
    130 C44        -7.6190   -0.2650    2.4750 ca        1 MOL     -0.120475
    131 C45       -10.0040    0.9070    1.5490 ca        1 MOL     -0.292964
    132 C46        -8.8620   -0.8080    2.8180 ca        1 MOL     -0.292964
    133 C47       -10.0440   -0.2800    2.2890 ca        1 MOL      0.353965
    134 O20       -11.2790   -0.8900    2.4790 oh        1 MOL     -0.512197
    135 H56        -4.9900    0.2330   -0.5290 hn        1 MOL      0.201917
    136 H57        -6.2860    2.8650   -0.1990 h1        1 MOL     -0.017729
    137 H58        -6.3490    2.7730    1.9750 hc        1 MOL      0.104467
    138 H59        -5.4100    1.3460    2.1920 hc        1 MOL      0.104467
    139 H60        -8.6990    2.5760    0.9860 ha        1 MOL      0.123194
    140 H61        -6.7220   -0.7470    2.7990 ha        1 MOL      0.123194
    141 H62       -10.9400    1.2820    1.1610 ha        1 MOL      0.146928
    142 H63        -8.9420   -1.6900    3.4430 ha        1 MOL      0.146928
    143 H64       -11.9790   -0.2290    2.3940 ho        1 MOL      0.352517
    144 N13        -4.4530    4.1640    0.4590 n         1 MOL     -0.448634
    145 C48        -3.3260    5.0900    0.9530 c3        1 MOL     -0.071533
    146 C49        -2.1220    5.1870    0.0370 c         1 MOL      0.259987
    147 O21        -1.3920    6.1510    0.1670 o         1 MOL     -0.474206
    148 C50        -2.7910    4.6690    2.3160 c3        1 MOL      0.224936
    149 C51        -3.9140    4.4620    3.4090 c3        1 MOL     -0.368132
    150 C52        -3.2740    4.2520    4.8040 c         1 MOL      0.661514
    151 O22        -2.5800    3.2240    5.1180 o         1 MOL     -0.703914
    152 O23        -3.3000    5.2440    5.5780 o         1 MOL     -0.703914
    153 H65        -5.3710    4.5550    0.3280 hn        1 MOL      0.320801
    154 H66        -3.6730    6.1270    1.0310 h1        1 MOL      0.109202
    155 H67        -2.1350    5.4200    2.7420 hc        1 MOL      0.058925
    156 H68        -2.1650    3.7810    2.2710 hc        1 MOL      0.058925
    157 H69        -4.4630    3.5430    3.1960 hc        1 MOL      0.028163
    158 H70        -4.6360    5.2700    3.3180 hc        1 MOL      0.028163
    159 N14        -1.9380    4.2600   -0.9680 n         1 MOL     -0.187681
    160 C53        -0.7540    4.2030   -1.8880 c3        1 MOL     -0.059620
    161 C54        -0.9650    4.8760   -3.2140 c         1 MOL      0.392575
    162 O24        -0.0200    5.1580   -3.9150 o         1 MOL     -0.534908
    163 C55        -0.4370    2.6920   -2.0250 c3        1 MOL      0.039565
    164 C56        -0.0780    1.9830   -0.7280 c3        1 MOL      0.326176
    165 C57         1.3880    2.0670   -0.2790 c         1 MOL      0.360786
    166 O25         1.6670    2.9670    0.5250 o         1 MOL     -0.560826
    167 O26         2.1900    1.2850   -0.8140 o         1 MOL     -0.560826
    168 H71        -2.5630    3.4670   -0.8990 hn        1 MOL      0.197760
    169 H72         0.0760    4.7500   -1.4560 h1        1 MOL      0.151913
    170 H73         0.3610    2.4710   -2.7330 hc        1 MOL     -0.017100
    171 H74        -1.3480    2.2080   -2.3810 hc        1 MOL     -0.017100
    172 H75        -0.2170    0.9140   -0.8600 hc        1 MOL     -0.128803
    173 H76        -0.6870    2.3070    0.1160 hc        1 MOL     -0.128803
    174 N15        -2.1600    5.1760   -3.6330 n         1 MOL     -0.138731
    175 C58        -2.4980    5.8550   -4.9110 c3        1 MOL     -0.240544
    176 H77        -1.7030    6.5540   -5.1720 h1        1 MOL      0.099218
    177 H78        -2.6030    5.1130   -5.7010 h1        1 MOL      0.099218
    178 H79        -3.4350    6.4010   -4.7960 h1        1 MOL      0.099218
    179 H80        -2.8940    4.8580   -3.0320 hn        1 MOL      0.152673
    180 Ca1         4.3030    2.0860    0.5650 Ca        1 MOL      1.676642
    181 O27         3.8190    3.1360    2.8400 oh        1 MOL     -0.842057
    182 H81         3.5800    2.3950    3.3980 ho        1 MOL      0.404341
    183 H82         3.3480    3.8790    3.2310 ho        1 MOL      0.404341
    184 O28         5.8740    0.8330    2.3680 oh        1 MOL     -0.842057
    185 H83         6.7140    0.4030    2.2090 ho        1 MOL      0.404341
    186 H84         5.6310    0.5810    3.2610 ho        1 MOL      0.404341
    187 O29         4.0750    5.0070    0.2760 oh        1 MOL     -0.842057
    188 H85         4.8330    5.2570   -0.2370 ho        1 MOL      0.404341
    189 H86         3.3970    5.6390    0.0320 ho        1 MOL      0.404341
@<TRIPOS>BOND
     1    1    2 1   
     2    1    4 1   
     3    1    5 1   
     4    1    6 1   
     5    2    3 2   
     6    2    7 1   
     7    7    8 1   
     8    7   15 1   
     9    8    9 1   
    10    8   11 1   
    11    8   16 1   
    12    9   10 2   
    13    9   19 1   
    14   11   12 1   
    15   11   17 1   
    16   11   18 1   
    17   12   13 1   
    18   12   14 1   
    19   19   20 1   
    20   19   27 1   
    21   20   21 1   
    22   20   23 1   
    23   20   28 1   
    24   21   22 2   
    25   21   38 1   
    26   23   24 1   
    27   23   25 1   
    28   23   29 1   
    29   24   26 1   
    30   24   30 1   
    31   24   31 1   
    32   25   32 1   
    33   25   33 1   
    34   25   34 1   
    35   26   35 1   
    36   26   36 1   
    37   26   37 1   
    38   38   39 1   
    39   38   46 1   
    40   39   40 1   
    41   39   42 1   
    42   39   47 1   
    43   40   41 2   
    44   40   50 1   
    45   42   43 1   
    46   42   48 1   
    47   42   49 1   
    48   43   44 1   
    49   43   45 1   
    50   50   51 1   
    51   50   54 1   
    52   51   52 1   
    53   51   55 1   
    54   51   56 1   
    55   52   53 2   
    56   52   57 1   
    57   57   58 1   
    58   57   65 1   
    59   58   59 1   
    60   58   61 1   
    61   58   66 1   
    62   59   60 2   
    63   59   69 1   
    64   61   62 1   
    65   61   67 1   
    66   61   68 1   
    67   62   63 1   
    68   62   64 1   
    69   69   70 1   
    70   69   73 1   
    71   70   71 1   
    72   70   74 1   
    73   70   75 1   
    74   71   72 2   
    75   71   76 1   
    76   76   77 1   
    77   76   85 1   
    78   77   78 1   
    79   77   80 1   
    80   77   86 1   
    81   78   79 2   
    82   78   93 1   
    83   80   81 1   
    84   80   87 1   
    85   80   88 1   
    86   81   82 1   
    87   81   89 1   
    88   81   90 1   
    89   82   83 1   
    90   82   84 2   
    91   83   91 1   
    92   83   92 1   
    93   93   94 1   
    94   93  100 1   
    95   94   95 1   
    96   94   97 1   
    97   94  101 1   
    98   95   96 2   
    99   95  109 1   
   100   97   98 1   
   101   97   99 1   
   102   97  102 1   
   103   98  103 1   
   104   98  104 1   
   105   98  105 1   
   106   99  106 1   
   107   99  107 1   
   108   99  108 1   
   109  109  110 1   
   110  109  117 1   
   111  110  111 1   
   112  110  113 1   
   113  110  118 1   
   114  111  112 2   
   115  111  123 1   
   116  113  114 1   
   117  113  119 1   
   118  113  120 1   
   119  114  115 1   
   120  114  116 2   
   121  115  121 1   
   122  115  122 1   
   123  123  124 1   
   124  123  135 1   
   125  124  125 1   
   126  124  127 1   
   127  124  136 1   
   128  125  126 2   
   129  125  144 1   
   130  127  128 1   
   131  127  137 1   
   132  127  138 1   
   133  128  129 ar  
   134  128  130 ar  
   135  129  131 ar  
   136  129  139 1   
   137  130  132 ar  
   138  130  140 1   
   139  131  133 ar  
   140  131  141 1   
   141  132  133 ar  
   142  132  142 1   
   143  133  134 1   
   144  134  143 1   
   145  144  145 1   
   146  144  153 1   
   147  145  146 1   
   148  145  148 1   
   149  145  154 1   
   150  146  147 2   
   151  146  159 1   
   152  148  149 1   
   153  148  155 1   
   154  148  156 1   
   155  149  150 1   
   156  149  157 1   
   157  149  158 1   
   158  150  151 1   
   159  150  152 1   
   160  159  160 1   
   161  159  168 1   
   162  160  161 1   
   163  160  163 1   
   164  160  169 1   
   165  161  162 2   
   166  161  174 1   
   167  163  164 1   
   168  163  170 1   
   169  163  171 1   
   170  164  165 1   
   171  164  172 1   
   172  164  173 1   
   173  165  166 1   
   174  165  167 1   
   175  174  175 1   
   176  174  179 1   
   177  175  176 1   
   178  175  177 1   
   179  175  178 1   
   180  181  182 1   
   181  181  183 1   
   182  184  185 1   
   183  184  186 1   
   184  187  188 1   
   185  187  189 1   
@<TRIPOS>SUBSTRUCTURE
     1 MOL         1 TEMP              0 ****  ****    0 ROOT
