@<TRIPOS>MOLECULE
MOL
  181   177     1     0     0
SMALL
resp


@<TRIPOS>ATOM
      1 C1          7.9290    7.2490   -1.9930 c3        1 MOL     -0.313824
      2 C2          6.9900    6.4720   -1.1470 c         1 MOL      0.730170
      3 O1          6.0640    7.0010   -0.6090 o         1 MOL     -0.561301
      4 H1          8.3920    8.0330   -1.3940 hc        1 MOL      0.072117
      5 H2          8.7020    6.5860   -2.3830 hc        1 MOL      0.072117
      6 H3          7.3830    7.7000   -2.8220 hc        1 MOL      0.072117
      7 N1          7.1410    5.0740   -1.0130 n         1 MOL     -0.727905
      8 C3          7.8880    4.1990   -1.8950 c3        1 MOL      0.317377
      9 C4          8.6780    3.0950   -1.1380 c         1 MOL      0.222938
     10 O2          9.2810    2.1790   -1.7340 o         1 MOL     -0.502963
     11 C5          7.0120    3.5390   -2.9300 c3        1 MOL     -0.132051
     12 C6          5.9990    2.5360   -2.5200 c         1 MOL      0.789916
     13 O3          5.5170    2.4800   -1.3810 o         1 MOL     -0.783154
     14 O4          5.5700    1.7960   -3.4410 o         1 MOL     -0.783154
     15 H4          6.4780    4.6360   -0.4030 hn        1 MOL      0.399826
     16 H5          8.5700    4.6340   -2.6220 h1        1 MOL      0.053742
     17 H6          7.6460    3.0990   -3.6970 hc        1 MOL      0.022397
     18 H7          6.5000    4.3510   -3.4640 hc        1 MOL      0.022397
     19 N2          8.8910    3.1860    0.1650 n         1 MOL     -0.284967
     20 C7          9.7940    2.3290    1.0160 c3        1 MOL      0.092362
     21 C8          9.4800    0.8370    1.2420 c         1 MOL      0.316049
     22 O5         10.3600    0.1570    1.8050 o         1 MOL     -0.536359
     23 C9          9.9700    3.0990    2.3020 c3        1 MOL     -0.254802
     24 H8          8.3760    3.9170    0.6490 hn        1 MOL      0.206756
     25 H9         10.7540    2.3910    0.5020 h1        1 MOL      0.088436
     26 H10        10.3200    4.1280    2.1800 hc        1 MOL      0.080065
     27 H11         9.0230    3.1560    2.8320 hc        1 MOL      0.080065
     28 H12        10.6950    2.6240    2.9600 hc        1 MOL      0.080065
     29 N3          8.2420    0.4280    0.9970 n         1 MOL     -0.047457
     30 C10         7.7030   -0.9420    1.0850 c3        1 MOL      0.020582
     31 C11         6.9660   -1.3660   -0.2240 c         1 MOL      0.401566
     32 O6          6.5370   -0.5530   -1.0350 o         1 MOL     -0.499797
     33 C12         6.7240   -0.9540    2.3120 c3        1 MOL     -0.174065
     34 C13         5.6040    0.0790    2.1770 c         1 MOL      0.560360
     35 O7          5.1750    0.5890    1.0920 o         1 MOL     -0.641935
     36 O8          5.0500    0.4850    3.1840 o         1 MOL     -0.641935
     37 H13         7.7460    1.1000    0.4370 hn        1 MOL      0.196287
     38 H14         8.4970   -1.6570    1.3220 h1        1 MOL      0.038365
     39 H15         7.3480   -0.7970    3.1960 hc        1 MOL      0.050722
     40 H16         6.2220   -1.9100    2.4310 hc        1 MOL      0.050722
     41 N4          6.9320   -2.6770   -0.5500 n         1 MOL     -0.178476
     42 C14         6.6040   -3.3180   -1.8120 c3        1 MOL     -0.468562
     43 C15         5.0800   -3.4290   -2.0530 c         1 MOL      0.766922
     44 O9          4.4490   -2.4210   -1.9400 o         1 MOL     -0.655693
     45 H17         7.4270   -3.3090    0.0560 hn        1 MOL      0.239808
     46 H18         7.0350   -4.3110   -1.7660 h1        1 MOL      0.169842
     47 H19         7.0080   -2.7190   -2.6230 h1        1 MOL      0.169842
     48 N5          4.5720   -4.6180   -2.2790 n         1 MOL     -0.523920
     49 C16         3.1220   -4.8770   -2.2400 c3        1 MOL      0.252232
     50 C17         2.6000   -4.4090   -0.8350 c         1 MOL      0.577862
     51 O10         3.2100   -4.6690    0.1920 o         1 MOL     -0.537696
     52 C18         2.7250   -6.3330   -2.5440 c3        1 MOL     -0.454550
     53 C19         3.2620   -6.7290   -3.9120 c         1 MOL      0.739051
     54 N6          2.6110   -6.4620   -4.9970 n         1 MOL     -0.811777
     55 O11         4.3610   -7.0770   -4.0700 o         1 MOL     -0.577187
     56 H20         5.2550   -5.3730   -2.2630 hn        1 MOL      0.292979
     57 H21         2.5840   -4.2560   -2.9550 h1        1 MOL      0.039529
     58 H22         1.6380   -6.4210   -2.5890 hc        1 MOL      0.136019
     59 H23         3.1270   -7.1040   -1.8930 hc        1 MOL      0.136019
     60 H24         1.6380   -6.2070   -4.9560 hn        1 MOL      0.365323
     61 H25         3.1010   -6.5850   -5.8760 hn        1 MOL      0.365323
     62 N7          1.4920   -3.6170   -0.7540 n         1 MOL     -0.506079
     63 C20         1.2060   -2.8250    0.4910 c3        1 MOL     -0.116471
     64 C21         2.4230   -2.0940    1.1900 c         1 MOL      0.263707
     65 O12         3.2670   -1.5280    0.5090 o         1 MOL     -0.428683
     66 H26         0.8280   -3.5340   -1.5120 hn        1 MOL      0.283461
     67 H27         0.6740   -3.5370    1.1270 h1        1 MOL      0.133543
     68 H28         0.4590   -2.0720    0.2160 h1        1 MOL      0.133543
     69 N8          2.4910   -2.0510    2.5570 n         1 MOL     -0.049327
     70 C22         1.5490   -2.7180    3.5400 c3        1 MOL     -0.330458
     71 C23         0.1570   -2.0680    3.4030 c         1 MOL      0.445198
     72 O13        -0.8400   -2.7320    3.7740 o         1 MOL     -0.569704
     73 C24         1.9290   -2.7560    5.0220 c3        1 MOL      0.491228
     74 C25         3.0930   -3.8120    5.1970 c3        1 MOL     -0.523699
     75 O14         2.3380   -1.5750    5.8010 oh        1 MOL     -0.580563
     76 H29         3.3270   -1.5960    2.8990 hn        1 MOL      0.193052
     77 H30         1.4310   -3.7540    3.2570 h1        1 MOL      0.130829
     78 H31         1.0570   -3.1400    5.5600 h1        1 MOL      0.037749
     79 H32         3.2350   -1.3840    5.5320 ho        1 MOL      0.359052
     80 H33         2.7870   -4.8540    5.3150 hc        1 MOL      0.125490
     81 H34         3.7520   -3.8360    4.3280 hc        1 MOL      0.125490
     82 H35         3.6450   -3.6840    6.1340 hc        1 MOL      0.125490
     83 N9         -0.0280   -0.8910    2.8020 n         1 MOL     -0.066498
     84 C26        -1.2290   -0.0520    2.6410 c3        1 MOL      0.419772
     85 C27        -1.4130    0.2480    1.1320 c         1 MOL      0.137138
     86 O15        -0.5150    0.6850    0.4550 o         1 MOL     -0.422225
     87 C28        -1.0700    1.1480    3.6160 c3        1 MOL     -0.006174
     88 C29        -0.7360    0.7570    5.0780 c3        1 MOL     -0.044008
     89 C30        -2.3400    1.9850    3.5620 c3        1 MOL     -0.177344
     90 C31        -1.7160   -0.0840    5.8570 c3        1 MOL     -0.185245
     91 H36         0.8320   -0.3960    2.6060 hn        1 MOL      0.060097
     92 H37        -2.0680   -0.6710    2.9540 h1        1 MOL      0.018638
     93 H38        -0.2280    1.7070    3.2150 hc        1 MOL     -0.050766
     94 H39        -0.5470    1.6670    5.6390 hc        1 MOL      0.016602
     95 H40         0.1700    0.1500    5.0190 hc        1 MOL      0.016602
     96 H41        -3.1800    1.3910    3.9400 hc        1 MOL      0.079377
     97 H42        -2.2200    2.8040    4.2610 hc        1 MOL      0.079377
     98 H43        -2.5480    2.2800    2.5310 hc        1 MOL      0.079377
     99 H44        -2.1200   -0.9280    5.3020 hc        1 MOL      0.041008
    100 H45        -1.2330   -0.3830    6.7880 hc        1 MOL      0.041008
    101 H46        -2.5360    0.6290    6.0070 hc        1 MOL      0.041008
    102 N10        -2.6100    0.0750    0.5130 n         1 MOL     -0.123161
    103 C32        -3.6770   -0.6760    1.0010 c3        1 MOL      0.015234
    104 C33        -4.9910   -0.4490    0.2210 c         1 MOL      0.467615
    105 O16        -5.0130    0.1240   -0.8980 o         1 MOL     -0.491222
    106 C34        -3.3560   -2.2040    0.9040 c3        1 MOL     -0.058568
    107 C35        -2.8290   -2.7020   -0.3850 c         1 MOL      0.660520
    108 O17        -1.6130   -3.0270   -0.4220 o         1 MOL     -0.697460
    109 O18        -3.5890   -2.7940   -1.3280 o         1 MOL     -0.697460
    110 H47        -2.5820    0.3270   -0.4570 hn        1 MOL      0.220808
    111 H48        -3.8310   -0.4780    2.0630 h1        1 MOL      0.016389
    112 H49        -4.2670   -2.7740    1.0810 hc        1 MOL     -0.014496
    113 H50        -2.5950   -2.4370    1.6590 hc        1 MOL     -0.014496
    114 N11        -6.1210   -0.9420    0.7710 n         1 MOL     -0.605696
    115 C36        -7.4370   -0.9680    0.1760 c3        1 MOL      0.593202
    116 C37        -8.4880   -0.1420    1.0070 c         1 MOL      0.115375
    117 O19        -8.4850   -0.2340    2.2750 o         1 MOL     -0.501360
    118 C38        -7.9020   -2.3750   -0.1010 c3        1 MOL     -0.360002
    119 C39        -9.2720   -2.4370   -0.7830 ca        1 MOL      0.196326
    120 C40       -10.4520   -2.3550    0.0410 ca        1 MOL     -0.241921
    121 C41        -9.3940   -2.6950   -2.1480 ca        1 MOL     -0.241921
    122 C42       -11.7600   -2.3100   -0.5500 ca        1 MOL     -0.066556
    123 C43       -10.7240   -2.8050   -2.6900 ca        1 MOL     -0.066556
    124 C44       -11.8650   -2.5760   -1.9260 ca        1 MOL     -0.196581
    125 H51        -5.9610   -1.6050    1.5110 hn        1 MOL      0.313499
    126 H52        -7.4270   -0.3850   -0.7470 h1        1 MOL     -0.073097
    127 H53        -7.9860   -2.8700    0.8630 hc        1 MOL      0.114998
    128 H54        -7.1640   -2.8500   -0.7580 hc        1 MOL      0.114998
    129 H55       -10.3860   -2.2240    1.1070 ha        1 MOL      0.150042
    130 H56        -8.5020   -2.9750   -2.6780 ha        1 MOL      0.150042
    131 H57       -12.7060   -2.3130   -0.0260 ha        1 MOL      0.098524
    132 H58       -10.8600   -3.0610   -3.7310 ha        1 MOL      0.098524
    133 H59       -12.8450   -2.5310   -2.3630 ha        1 MOL      0.116620
    134 N12        -9.4470    0.5290    0.3780 n         1 MOL      0.226026
    135 C45        -9.6010    0.7870   -1.0550 c3        1 MOL      0.084707
    136 C46        -8.5600    1.7340   -1.6600 c         1 MOL      0.487347
    137 O20        -8.3270    1.7080   -2.8540 o         1 MOL     -0.563063
    138 C47       -11.0000    1.3850   -1.1920 c3        1 MOL     -0.205842
    139 C48       -11.2970    1.9440    0.2020 c3        1 MOL      0.067807
    140 C49       -10.5000    1.0740    1.1750 c3        1 MOL     -0.263435
    141 H60        -9.5790   -0.0850   -1.7040 h1        1 MOL      0.033101
    142 H61       -11.1000    2.1530   -1.9560 hc        1 MOL      0.053844
    143 H62       -11.7310    0.5700   -1.2390 hc        1 MOL      0.053844
    144 H63       -10.9110    2.9590    0.1270 hc        1 MOL      0.003427
    145 H64       -12.3560    2.0330    0.4730 hc        1 MOL      0.003427
    146 H65       -10.2070    1.6740    2.0340 h1        1 MOL      0.090476
    147 H66       -11.2290    0.3320    1.5330 h1        1 MOL      0.090476
    148 N13        -7.9840    2.6160   -0.8100 n         1 MOL     -0.302042
    149 C50        -6.8550    3.4490   -1.1910 c3        1 MOL      0.136861
    150 C51        -7.2970    4.5810   -2.0320 c         1 MOL      0.347202
    151 O21        -7.6600    5.6410   -1.5440 o         1 MOL     -0.538904
    152 C52        -6.1330    4.0170    0.0850 c3        1 MOL      0.170540
    153 C53        -5.4790    2.9610    0.9760 c3        1 MOL     -0.132279
    154 C54        -5.0370    3.5380    2.2980 c         1 MOL      0.680804
    155 O22        -5.5250    3.0130    3.3280 o         1 MOL     -0.726095
    156 O23        -4.2570    4.4990    2.3260 o         1 MOL     -0.726095
    157 H67        -8.2350    2.5940    0.1690 hn        1 MOL      0.221100
    158 H68        -6.2000    2.7620   -1.7250 h1        1 MOL      0.070880
    159 H69        -6.8580    4.7010    0.5270 hc        1 MOL     -0.027624
    160 H70        -5.3040    4.6270   -0.2700 hc        1 MOL     -0.027624
    161 H71        -4.6300    2.5930    0.3960 hc        1 MOL     -0.030431
    162 H72        -6.1240    2.0900    1.0890 hc        1 MOL     -0.030431
    163 N14        -7.0600    4.6060   -3.3880 n         1 MOL     -0.296438
    164 C55        -6.3000    3.6540   -4.2530 c3        1 MOL     -0.157513
    165 H73        -6.9750    2.8810   -4.6210 h1        1 MOL      0.079386
    166 H74        -5.8700    4.1930   -5.0970 h1        1 MOL      0.079386
    167 H75        -5.5020    3.1920   -3.6720 h1        1 MOL      0.079386
    168 H76        -7.4460    5.4070   -3.8740 hn        1 MOL      0.247994
    169 Ca1         4.0740    0.2900   -1.3960 Ca        1 MOL      1.754890
    170 O24         2.5890    2.3140   -2.6110 oh        1 MOL     -0.798854
    171 H77         2.0480    3.0460   -2.2880 ho        1 MOL      0.394103
    172 H78         2.5430    2.3930   -3.5690 ho        1 MOL      0.394103
    173 O25         2.4100    1.7100    0.3290 oh        1 MOL     -0.798854
    174 H79         1.4580    1.7320    0.3840 ho        1 MOL      0.394103
    175 H80         2.6870    1.4880    1.2160 ho        1 MOL      0.394103
    176 O26         1.2830   -0.1600   -1.5770 oh        1 MOL     -0.798854
    177 H81         0.5220   -0.1590   -0.9990 ho        1 MOL      0.394103
    178 H82         1.1190   -0.8700   -2.1980 ho        1 MOL      0.394103
    179 O27         3.6860   -0.1890   -3.9390 oh        1 MOL     -0.798854
    180 H83         3.6340   -0.7790   -4.7010 ho        1 MOL      0.394103
    181 H84         3.7910    0.6840   -4.3150 ho        1 MOL      0.394103
@<TRIPOS>BOND
     1    1    2 1   
     2    1    4 1   
     3    1    5 1   
     4    1    6 1   
     5    2    3 2   
     6    2    7 1   
     7    7    8 1   
     8    7   15 1   
     9    8    9 1   
    10    8   11 1   
    11    8   16 1   
    12    9   10 2   
    13    9   19 1   
    14   11   12 1   
    15   11   17 1   
    16   11   18 1   
    17   12   13 1   
    18   12   14 1   
    19   19   20 1   
    20   19   24 1   
    21   20   21 1   
    22   20   23 1   
    23   20   25 1   
    24   21   22 2   
    25   21   29 1   
    26   23   26 1   
    27   23   27 1   
    28   23   28 1   
    29   29   30 1   
    30   29   37 1   
    31   30   31 1   
    32   30   33 1   
    33   30   38 1   
    34   31   32 2   
    35   31   41 1   
    36   33   34 1   
    37   33   39 1   
    38   33   40 1   
    39   34   35 1   
    40   34   36 1   
    41   41   42 1   
    42   41   45 1   
    43   42   43 1   
    44   42   46 1   
    45   42   47 1   
    46   43   44 2   
    47   43   48 1   
    48   48   49 1   
    49   48   56 1   
    50   49   50 1   
    51   49   52 1   
    52   49   57 1   
    53   50   51 2   
    54   50   62 1   
    55   52   53 1   
    56   52   58 1   
    57   52   59 1   
    58   53   54 1   
    59   53   55 2   
    60   54   60 1   
    61   54   61 1   
    62   62   63 1   
    63   62   66 1   
    64   63   64 1   
    65   63   67 1   
    66   63   68 1   
    67   64   65 2   
    68   64   69 1   
    69   69   70 1   
    70   69   76 1   
    71   70   71 1   
    72   70   73 1   
    73   70   77 1   
    74   71   72 2   
    75   71   83 1   
    76   73   74 1   
    77   73   75 1   
    78   73   78 1   
    79   74   80 1   
    80   74   81 1   
    81   74   82 1   
    82   75   79 1   
    83   83   84 1   
    84   83   91 1   
    85   84   85 1   
    86   84   87 1   
    87   84   92 1   
    88   85   86 2   
    89   85  102 1   
    90   87   88 1   
    91   87   89 1   
    92   87   93 1   
    93   88   90 1   
    94   88   94 1   
    95   88   95 1   
    96   89   96 1   
    97   89   97 1   
    98   89   98 1   
    99   90   99 1   
   100   90  100 1   
   101   90  101 1   
   102  102  103 1   
   103  102  110 1   
   104  103  104 1   
   105  103  106 1   
   106  103  111 1   
   107  104  105 2   
   108  104  114 1   
   109  106  107 1   
   110  106  112 1   
   111  106  113 1   
   112  107  108 1   
   113  107  109 1   
   114  114  115 1   
   115  114  125 1   
   116  115  116 1   
   117  115  118 1   
   118  115  126 1   
   119  116  117 2   
   120  116  134 1   
   121  118  119 1   
   122  118  127 1   
   123  118  128 1   
   124  119  120 ar  
   125  119  121 ar  
   126  120  122 ar  
   127  120  129 1   
   128  121  123 ar  
   129  121  130 1   
   130  122  124 ar  
   131  122  131 1   
   132  123  124 ar  
   133  123  132 1   
   134  124  133 1   
   135  134  135 1   
   136  134  140 1   
   137  135  136 1   
   138  135  138 1   
   139  135  141 1   
   140  136  137 2   
   141  136  148 1   
   142  138  139 1   
   143  138  142 1   
   144  138  143 1   
   145  139  140 1   
   146  139  144 1   
   147  139  145 1   
   148  140  146 1   
   149  140  147 1   
   150  148  149 1   
   151  148  157 1   
   152  149  150 1   
   153  149  152 1   
   154  149  158 1   
   155  150  151 2   
   156  150  163 1   
   157  152  153 1   
   158  152  159 1   
   159  152  160 1   
   160  153  154 1   
   161  153  161 1   
   162  153  162 1   
   163  154  155 1   
   164  154  156 1   
   165  163  164 1   
   166  163  168 1   
   167  164  165 1   
   168  164  166 1   
   169  164  167 1   
   170  170  171 1   
   171  170  172 1   
   172  173  174 1   
   173  173  175 1   
   174  176  177 1   
   175  176  178 1   
   176  179  180 1   
   177  179  181 1   
@<TRIPOS>SUBSTRUCTURE
     1 MOL         1 TEMP              0 ****  ****    0 ROOT
