@<TRIPOS>MOLECULE
MOL
  181   177     1     0     0
SMALL
resp


@<TRIPOS>ATOM
      1 C1          8.2620    6.7830   -3.0660 c3        1 MOL     -0.246509
      2 C2          7.9530    5.8660   -1.8120 c         1 MOL      0.561907
      3 O1          7.1090    6.2240   -1.0040 o         1 MOL     -0.535014
      4 H1          7.4340    6.7230   -3.7730 hc        1 MOL      0.057612
      5 H2          8.3870    7.8150   -2.7410 hc        1 MOL      0.057612
      6 H3          9.1770    6.4400   -3.5500 hc        1 MOL      0.057612
      7 N1          8.5460    4.7130   -1.6160 n         1 MOL     -0.328160
      8 C3          9.7890    4.1000   -2.2410 c3        1 MOL      0.036055
      9 C4         10.8230    3.7150   -1.1570 c         1 MOL      0.409120
     10 O2         10.8950    4.3320   -0.0240 o         1 MOL     -0.483212
     11 C5          9.4020    2.9380   -3.2280 c3        1 MOL     -0.155310
     12 C6          8.5060    1.8990   -2.6570 c         1 MOL      0.772147
     13 O3          7.3010    1.7300   -3.0620 o         1 MOL     -0.758214
     14 O4          8.9360    1.2030   -1.6910 o         1 MOL     -0.758214
     15 H4          8.4170    4.3400   -0.6780 hn        1 MOL      0.300190
     16 H5         10.2130    4.8720   -2.8760 h1        1 MOL      0.071590
     17 H6         10.3140    2.4010   -3.4850 hc        1 MOL      0.007157
     18 H7          8.9440    3.3480   -4.1190 hc        1 MOL      0.007157
     19 N2         11.6450    2.6520   -1.3520 n         1 MOL     -0.516085
     20 C7         12.5210    1.9940   -0.3350 c3        1 MOL      0.452817
     21 C8         11.6840    1.5460    0.9480 c         1 MOL      0.319677
     22 O5         12.2540    1.4000    2.0340 o         1 MOL     -0.511562
     23 C9         13.6790    2.8800   -0.0260 c3        1 MOL     -0.390661
     24 H8         11.6460    2.1830   -2.2530 hn        1 MOL      0.301671
     25 H9         12.9070    1.0960   -0.8220 h1        1 MOL     -0.032623
     26 H10        14.1770    2.9760   -1.0000 hc        1 MOL      0.091245
     27 H11        13.2670    3.8560    0.2360 hc        1 MOL      0.091245
     28 H12        14.2010    2.3170    0.7310 hc        1 MOL      0.091245
     29 N3         10.3580    1.1180    0.8700 n         1 MOL     -0.137364
     30 C10         9.5910    0.4580    1.9160 c3        1 MOL     -0.042199
     31 C11         8.8990   -0.8480    1.4780 c         1 MOL      0.516193
     32 O6          8.8620   -1.1230    0.2660 o         1 MOL     -0.587050
     33 C12         8.4540    1.4650    2.2320 c3        1 MOL     -0.002199
     34 C13         7.6910    2.0020    1.0550 c         1 MOL      0.787393
     35 O7          7.6080    3.2200    0.9120 o         1 MOL     -0.706169
     36 O8          6.8920    1.2010    0.4760 o         1 MOL     -0.706169
     37 H13         9.9120    1.1100   -0.0350 hn        1 MOL      0.076532
     38 H14        10.1920    0.3670    2.8140 h1        1 MOL      0.060071
     39 H15         8.9390    2.2640    2.7940 hc        1 MOL     -0.001467
     40 H16         7.8320    1.0690    3.0370 hc        1 MOL     -0.001467
     41 N4          8.3390   -1.6050    2.3890 n         1 MOL     -0.553388
     42 C14         7.7990   -2.9730    2.0260 c3        1 MOL      0.047236
     43 C15         6.4950   -3.0200    1.2060 c         1 MOL      0.494847
     44 O9          6.0710   -2.0010    0.6270 o         1 MOL     -0.520687
     45 H17         8.2550   -1.2920    3.3420 hn        1 MOL      0.355957
     46 H18         7.6420   -3.4630    2.9880 h1        1 MOL      0.063592
     47 H19         8.5410   -3.5960    1.5300 h1        1 MOL      0.063592
     48 N5          5.9440   -4.1850    1.0750 n         1 MOL     -0.535144
     49 C16         4.6560   -4.4450    0.4270 c3        1 MOL     -0.013756
     50 C17         3.4470   -3.8420    1.1160 c         1 MOL      0.674632
     51 O10         2.4210   -3.9980    0.5150 o         1 MOL     -0.528772
     52 C18         4.5530   -5.9800    0.2530 c3        1 MOL     -0.204288
     53 C19         5.5200   -6.5380   -0.8380 c         1 MOL      0.764594
     54 N6          5.3720   -7.8360   -0.9910 n         1 MOL     -0.823299
     55 O11         6.1960   -5.7940   -1.5520 o         1 MOL     -0.613362
     56 H20         6.3800   -4.9030    1.6350 hn        1 MOL      0.280529
     57 H21         4.6680   -3.9920   -0.5650 h1        1 MOL      0.134341
     58 H22         3.6030   -6.4000   -0.0850 hc        1 MOL      0.074679
     59 H23         4.7410   -6.4570    1.2130 hc        1 MOL      0.074679
     60 H24         4.8620   -8.3800   -0.3020 hn        1 MOL      0.388664
     61 H25         5.8270   -8.1880   -1.8160 hn        1 MOL      0.388664
     62 N7          3.4890   -3.2550    2.2900 n         1 MOL     -0.539025
     63 C20         2.2430   -2.7550    2.9730 c3        1 MOL     -0.012142
     64 C21         1.8170   -1.3210    2.5200 c         1 MOL      0.601234
     65 O12         2.7620   -0.4840    2.2150 o         1 MOL     -0.544917
     66 H26         4.3360   -3.2310    2.8440 hn        1 MOL      0.339653
     67 H27         2.4130   -2.7550    4.0480 h1        1 MOL      0.076703
     68 H28         1.3900   -3.4090    2.8270 h1        1 MOL      0.076703
     69 N8          0.5350   -0.9430    2.4090 n         1 MOL     -0.512928
     70 C22        -0.6410   -1.6170    3.0190 c3        1 MOL      0.001829
     71 C23        -1.8910   -1.6090    2.1700 c         1 MOL      0.681226
     72 O13        -2.4810   -2.6700    2.1180 o         1 MOL     -0.549905
     73 C24        -0.8080   -1.1570    4.5070 c3        1 MOL      0.343444
     74 C25        -1.7370   -2.1310    5.2710 c3        1 MOL     -0.476867
     75 O14         0.3730   -1.0770    5.1410 oh        1 MOL     -0.644607
     76 H29         0.3540    0.0520    2.2630 hn        1 MOL      0.305078
     77 H30        -0.3590   -2.6680    3.1080 h1        1 MOL      0.094987
     78 H31        -1.2070   -0.1440    4.5140 h1        1 MOL      0.004900
     79 H32         0.1970   -0.7250    6.0140 ho        1 MOL      0.425580
     80 H33        -2.7400   -2.3150    4.8720 hc        1 MOL      0.123922
     81 H34        -1.2770   -3.1170    5.2560 hc        1 MOL      0.123922
     82 H35        -1.8700   -1.7350    6.2850 hc        1 MOL      0.123922
     83 N9         -2.3420   -0.5470    1.4820 n         1 MOL     -0.690332
     84 C26        -3.5020   -0.6460    0.5520 c3        1 MOL      0.005353
     85 C27        -3.2580   -1.6390   -0.6500 c         1 MOL      0.874703
     86 O15        -2.1930   -1.7130   -1.2110 o         1 MOL     -0.608961
     87 C28        -3.6940    0.7880    0.0650 c3        1 MOL     -0.318526
     88 C29        -4.2240    1.7740    1.2210 c3        1 MOL      0.438742
     89 C30        -4.6260    0.9230   -1.2110 c3        1 MOL     -0.039764
     90 C31        -3.5100    3.1250    1.0690 c3        1 MOL     -0.296397
     91 H36        -1.8310    0.3200    1.5040 hn        1 MOL      0.355391
     92 H37        -4.3860   -0.9520    1.1140 h1        1 MOL      0.121407
     93 H38        -2.7080    1.1450   -0.2480 hc        1 MOL      0.089468
     94 H39        -4.1190    1.4460    2.2480 hc        1 MOL     -0.079503
     95 H40        -5.2970    1.8510    1.0470 hc        1 MOL     -0.079503
     96 H41        -4.7020    1.9070   -1.6660 hc        1 MOL      0.025215
     97 H42        -4.2720    0.2980   -2.0360 hc        1 MOL      0.025215
     98 H43        -5.6010    0.5670   -0.8600 hc        1 MOL      0.025215
     99 H44        -3.4340    3.4910    0.0420 hc        1 MOL      0.053051
    100 H45        -4.1910    3.7690    1.6300 hc        1 MOL      0.053051
    101 H46        -2.4950    3.0410    1.4770 hc        1 MOL      0.053051
    102 N10        -4.2650   -2.4710   -1.0870 n         1 MOL     -0.853084
    103 C32        -5.5950   -2.7340   -0.4760 c3        1 MOL      0.688482
    104 C33        -6.8410   -2.1610   -1.2090 c         1 MOL      0.449057
    105 O16        -6.7700   -1.8000   -2.4110 o         1 MOL     -0.567040
    106 C34        -5.8040   -4.2500   -0.3100 c3        1 MOL     -0.425236
    107 C35        -5.4100   -5.2000   -1.4920 c         1 MOL      0.809262
    108 O17        -5.8200   -6.3920   -1.5470 o         1 MOL     -0.737458
    109 O18        -4.7170   -4.8280   -2.4200 o         1 MOL     -0.737458
    110 H47        -4.0440   -3.0590   -1.8760 hn        1 MOL      0.385159
    111 H48        -5.5250   -2.3690    0.5460 h1        1 MOL     -0.115105
    112 H49        -6.8140   -4.4960    0.0040 hc        1 MOL      0.043072
    113 H50        -5.2160   -4.4480    0.5870 hc        1 MOL      0.043072
    114 N11        -7.9560   -2.0900   -0.5610 n         1 MOL     -0.581899
    115 C36        -9.2340   -1.4620   -0.9450 c3        1 MOL      0.492613
    116 C37       -10.1500   -1.2240    0.2210 c         1 MOL      0.165434
    117 O19       -10.3150   -2.1440    1.0200 o         1 MOL     -0.487247
    118 C38        -9.8960   -2.2420   -2.0520 c3        1 MOL     -0.219694
    119 C39       -10.8350   -1.3850   -2.8120 ca        1 MOL      0.094012
    120 C40       -12.0730   -1.0080   -2.2690 ca        1 MOL     -0.140939
    121 C41       -10.4650   -0.8750   -4.0830 ca        1 MOL     -0.140939
    122 C42       -13.0460   -0.4180   -3.1000 ca        1 MOL     -0.139340
    123 C43       -11.4810   -0.2530   -4.8720 ca        1 MOL     -0.139340
    124 C44       -12.8070   -0.0790   -4.4200 ca        1 MOL     -0.133786
    125 H51        -7.8940   -2.4590    0.3760 hn        1 MOL      0.297080
    126 H52        -8.9120   -0.4650   -1.2410 h1        1 MOL     -0.043624
    127 H53       -10.5020   -3.0660   -1.6650 hc        1 MOL      0.087550
    128 H54        -9.0850   -2.7100   -2.5950 hc        1 MOL      0.087550
    129 H55       -12.4070   -1.3150   -1.2990 ha        1 MOL      0.129663
    130 H56        -9.4950   -1.1180   -4.4850 ha        1 MOL      0.129663
    131 H57       -14.0260   -0.1980   -2.7150 ha        1 MOL      0.100573
    132 H58       -11.2550   -0.0360   -5.9120 ha        1 MOL      0.100573
    133 H59       -13.5690    0.3580   -5.0520 ha        1 MOL      0.106618
    134 N12       -10.7370    0.0050    0.4670 n         1 MOL     -0.060570
    135 C45       -10.6710    1.2430   -0.3210 c3        1 MOL      0.490452
    136 C46        -9.3670    1.9910    0.1520 c         1 MOL      0.244709
    137 O20        -8.3400    1.3510    0.1390 o         1 MOL     -0.434769
    138 C47       -12.0220    1.9230   -0.2930 c3        1 MOL     -0.419520
    139 C48       -12.3980    1.6310    1.1870 c3        1 MOL      0.144627
    140 C49       -11.7620    0.2510    1.5390 c3        1 MOL     -0.157861
    141 H60       -10.5350    1.0520   -1.3880 h1        1 MOL     -0.054001
    142 H61       -11.9050    2.9880   -0.5040 hc        1 MOL      0.078018
    143 H62       -12.6670    1.3540   -0.9580 hc        1 MOL      0.078018
    144 H63       -12.1120    2.4080    1.9000 hc        1 MOL     -0.013491
    145 H64       -13.4440    1.3930    1.3750 hc        1 MOL     -0.013491
    146 H65       -11.3040    0.3620    2.5180 h1        1 MOL      0.089875
    147 H66       -12.5520   -0.4990    1.5570 h1        1 MOL      0.089875
    148 N13        -9.4740    3.3150    0.3740 n         1 MOL     -0.323609
    149 C50        -8.3740    4.2940    0.6120 c3        1 MOL      0.107956
    150 C51        -8.6570    5.5310   -0.2870 c         1 MOL      0.398790
    151 O21        -8.5980    6.6220    0.2440 o         1 MOL     -0.548798
    152 C52        -8.1620    4.5430    2.1510 c3        1 MOL     -0.067376
    153 C53        -7.4030    3.4460    2.8480 c3        1 MOL      0.115791
    154 C54        -7.0710    3.7340    4.3000 c         1 MOL      0.611850
    155 O22        -6.3740    4.7470    4.6370 o         1 MOL     -0.719685
    156 O23        -7.6730    3.0500    5.1660 o         1 MOL     -0.719685
    157 H67       -10.3550    3.7970    0.3340 hn        1 MOL      0.249440
    158 H68        -7.4650    3.7840    0.3030 h1        1 MOL      0.119140
    159 H69        -9.1300    4.5610    2.6470 hc        1 MOL      0.020411
    160 H70        -7.5670    5.4290    2.3460 hc        1 MOL      0.020411
    161 H71        -6.4160    3.3750    2.4020 hc        1 MOL     -0.066975
    162 H72        -7.9580    2.5110    2.8310 hc        1 MOL     -0.066975
    163 N14        -8.9040    5.4970   -1.5670 n         1 MOL     -0.344024
    164 C55        -8.8200    4.3670   -2.4890 c3        1 MOL     -0.031043
    165 H73        -8.5910    4.7330   -3.4910 h1        1 MOL      0.047431
    166 H74        -8.0320    3.6890   -2.1620 h1        1 MOL      0.047431
    167 H75        -9.7730    3.8380   -2.5050 h1        1 MOL      0.047431
    168 H76        -9.0980    6.3770   -2.0260 hn        1 MOL      0.271597
    169 Ca1         6.9500   -0.5680   -1.4760 Ca        1 MOL      1.723845
    170 O24         6.8170   -3.1590   -2.0140 oh        1 MOL     -0.837634
    171 H77         7.0810   -3.3900   -2.9060 ho        1 MOL      0.419821
    172 H78         6.5700   -3.9900   -1.6120 ho        1 MOL      0.419821
    173 O25         5.4710   -0.9020   -3.8230 oh        1 MOL     -0.837634
    174 H79         4.5830   -0.5940   -3.9980 ho        1 MOL      0.419821
    175 H80         5.8580   -1.0140   -4.6830 ho        1 MOL      0.419821
    176 O26         4.4510    0.1070   -1.2340 oh        1 MOL     -0.837634
    177 H81         3.9480    0.3240   -2.0090 ho        1 MOL      0.419821
    178 H82         3.9900    0.5270   -0.5140 ho        1 MOL      0.419821
    179 O27         8.8620   -1.5130   -3.2360 oh        1 MOL     -0.837634
    180 H83         9.4680   -2.1860   -2.9230 ho        1 MOL      0.419821
    181 H84         9.3090   -1.1190   -3.9830 ho        1 MOL      0.419821
@<TRIPOS>BOND
     1    1    2 1   
     2    1    4 1   
     3    1    5 1   
     4    1    6 1   
     5    2    3 2   
     6    2    7 1   
     7    7    8 1   
     8    7   15 1   
     9    8    9 1   
    10    8   11 1   
    11    8   16 1   
    12    9   10 2   
    13    9   19 1   
    14   11   12 1   
    15   11   17 1   
    16   11   18 1   
    17   12   13 1   
    18   12   14 1   
    19   19   20 1   
    20   19   24 1   
    21   20   21 1   
    22   20   23 1   
    23   20   25 1   
    24   21   22 2   
    25   21   29 1   
    26   23   26 1   
    27   23   27 1   
    28   23   28 1   
    29   29   30 1   
    30   29   37 1   
    31   30   31 1   
    32   30   33 1   
    33   30   38 1   
    34   31   32 2   
    35   31   41 1   
    36   33   34 1   
    37   33   39 1   
    38   33   40 1   
    39   34   35 1   
    40   34   36 1   
    41   41   42 1   
    42   41   45 1   
    43   42   43 1   
    44   42   46 1   
    45   42   47 1   
    46   43   44 2   
    47   43   48 1   
    48   48   49 1   
    49   48   56 1   
    50   49   50 1   
    51   49   52 1   
    52   49   57 1   
    53   50   51 2   
    54   50   62 1   
    55   52   53 1   
    56   52   58 1   
    57   52   59 1   
    58   53   54 1   
    59   53   55 2   
    60   54   60 1   
    61   54   61 1   
    62   62   63 1   
    63   62   66 1   
    64   63   64 1   
    65   63   67 1   
    66   63   68 1   
    67   64   65 2   
    68   64   69 1   
    69   69   70 1   
    70   69   76 1   
    71   70   71 1   
    72   70   73 1   
    73   70   77 1   
    74   71   72 2   
    75   71   83 1   
    76   73   74 1   
    77   73   75 1   
    78   73   78 1   
    79   74   80 1   
    80   74   81 1   
    81   74   82 1   
    82   75   79 1   
    83   83   84 1   
    84   83   91 1   
    85   84   85 1   
    86   84   87 1   
    87   84   92 1   
    88   85   86 2   
    89   85  102 1   
    90   87   88 1   
    91   87   89 1   
    92   87   93 1   
    93   88   90 1   
    94   88   94 1   
    95   88   95 1   
    96   89   96 1   
    97   89   97 1   
    98   89   98 1   
    99   90   99 1   
   100   90  100 1   
   101   90  101 1   
   102  102  103 1   
   103  102  110 1   
   104  103  104 1   
   105  103  106 1   
   106  103  111 1   
   107  104  105 2   
   108  104  114 1   
   109  106  107 1   
   110  106  112 1   
   111  106  113 1   
   112  107  108 1   
   113  107  109 1   
   114  114  115 1   
   115  114  125 1   
   116  115  116 1   
   117  115  118 1   
   118  115  126 1   
   119  116  117 2   
   120  116  134 1   
   121  118  119 1   
   122  118  127 1   
   123  118  128 1   
   124  119  120 ar  
   125  119  121 ar  
   126  120  122 ar  
   127  120  129 1   
   128  121  123 ar  
   129  121  130 1   
   130  122  124 ar  
   131  122  131 1   
   132  123  124 ar  
   133  123  132 1   
   134  124  133 1   
   135  134  135 1   
   136  134  140 1   
   137  135  136 1   
   138  135  138 1   
   139  135  141 1   
   140  136  137 2   
   141  136  148 1   
   142  138  139 1   
   143  138  142 1   
   144  138  143 1   
   145  139  140 1   
   146  139  144 1   
   147  139  145 1   
   148  140  146 1   
   149  140  147 1   
   150  148  149 1   
   151  148  157 1   
   152  149  150 1   
   153  149  152 1   
   154  149  158 1   
   155  150  151 2   
   156  150  163 1   
   157  152  153 1   
   158  152  159 1   
   159  152  160 1   
   160  153  154 1   
   161  153  161 1   
   162  153  162 1   
   163  154  155 1   
   164  154  156 1   
   165  163  164 1   
   166  163  168 1   
   167  164  165 1   
   168  164  166 1   
   169  164  167 1   
   170  170  171 1   
   171  170  172 1   
   172  173  174 1   
   173  173  175 1   
   174  176  177 1   
   175  176  178 1   
   176  179  180 1   
   177  179  181 1   
@<TRIPOS>SUBSTRUCTURE
     1 MOL         1 TEMP              0 ****  ****    0 ROOT
