@<TRIPOS>MOLECULE
MOL
  192   187     1     0     0
SMALL
resp


@<TRIPOS>ATOM
      1 C1         -6.3230   -3.1700    4.8370 c3        1 MOL     -0.280347
      2 C2         -5.6200   -2.5630    3.5610 c         1 MOL      0.648700
      3 O1         -5.1060   -3.3300    2.6750 o         1 MOL     -0.547421
      4 H1         -5.5870   -3.7040    5.4380 hc        1 MOL      0.076165
      5 H2         -6.7610   -2.3660    5.4290 hc        1 MOL      0.076165
      6 H3         -7.1070   -3.8610    4.5260 hc        1 MOL      0.076165
      7 N1         -5.6360   -1.2200    3.4650 n         1 MOL     -0.517704
      8 C3         -5.4160   -0.4160    2.2300 c3        1 MOL      0.528793
      9 C4         -3.9210   -0.4410    1.8650 c         1 MOL     -0.075349
     10 O2         -3.5070    0.2910    0.9900 o         1 MOL     -0.242238
     11 C5         -5.9110    1.0560    2.2550 c3        1 MOL     -0.266256
     12 C6         -7.4040    1.1850    2.5360 c         1 MOL      0.714064
     13 O3         -7.8770    0.9130    3.6280 o         1 MOL     -0.709836
     14 O4         -8.0800    1.6450    1.5680 o         1 MOL     -0.709836
     15 H4         -6.0650   -0.6910    4.2170 hn        1 MOL      0.257186
     16 H5         -5.9180   -0.9770    1.4360 h1        1 MOL     -0.014402
     17 H6         -5.7060    1.5290    1.2910 hc        1 MOL      0.001876
     18 H7         -5.3710    1.6650    2.9770 hc        1 MOL      0.001876
     19 N2         -3.0380   -1.2550    2.5370 n         1 MOL     -0.268264
     20 C7         -1.5670   -1.1160    2.6150 c3        1 MOL      0.011879
     21 C8         -0.8750   -2.4510    2.2560 c         1 MOL      0.481990
     22 O5         -1.2370   -3.5000    2.9010 o         1 MOL     -0.508811
     23 C9         -1.2280   -0.6580    4.0920 c3        1 MOL     -0.327431
     24 C10        -1.9580    0.6280    4.5230 c3        1 MOL      0.050484
     25 C11        -1.1960    1.0610    5.8170 c3        1 MOL      0.007319
     26 C12        -2.0470    2.2500    6.3960 c3        1 MOL      0.082397
     27 N3         -1.8810    2.5220    7.8340 n4        1 MOL     -0.409494
     28 H8         -3.4750   -1.9660    3.1000 hn        1 MOL      0.219587
     29 H9         -1.3080   -0.4420    1.7990 h1        1 MOL      0.130862
     30 H10        -0.1410   -0.6630    4.0690 hc        1 MOL      0.121888
     31 H11        -1.4590   -1.4900    4.7490 hc        1 MOL      0.121888
     32 H12        -2.9980    0.3720    4.7450 hc        1 MOL      0.015479
     33 H13        -1.8130    1.3800    3.7580 hc        1 MOL      0.015479
     34 H14        -0.1980    1.4450    5.6140 hc        1 MOL      0.040109
     35 H15        -1.1480    0.1860    6.4710 hc        1 MOL      0.040109
     36 H16        -3.0740    1.9280    6.2250 hx        1 MOL      0.066976
     37 H17        -1.8370    3.1270    5.7910 hx        1 MOL      0.066976
     38 H18        -2.2710    1.7660    8.3840 hn        1 MOL      0.335752
     39 H19        -0.9230    2.7150    8.0850 hn        1 MOL      0.335752
     40 H20        -2.4380    3.3120    8.1230 hn        1 MOL      0.335752
     41 N4          0.1790   -2.4400    1.3940 n         1 MOL     -0.233085
     42 C13         1.0110   -1.4190    0.7170 c3        1 MOL     -0.012826
     43 C14         1.6550   -0.3620    1.6570 c         1 MOL      0.427396
     44 O6          0.9250    0.5360    2.1000 o         1 MOL     -0.516157
     45 C15         0.2320   -0.8130   -0.4600 c3        1 MOL     -0.292482
     46 C16         0.0710   -1.7180   -1.6800 c         1 MOL      0.390734
     47 O7          0.6330   -2.8370   -1.6880 o         1 MOL     -0.607504
     48 O8         -0.4600   -1.3480   -2.7630 o         1 MOL     -0.607504
     49 H21         0.4190   -3.3900    1.1460 hn        1 MOL      0.119477
     50 H22         1.8180   -2.0060    0.2820 h1        1 MOL      0.009668
     51 H23         0.6950    0.0730   -0.8990 hc        1 MOL      0.151761
     52 H24        -0.7960   -0.6020   -0.1640 hc        1 MOL      0.151761
     53 N5          2.9080   -0.4100    2.0640 n         1 MOL     -0.360414
     54 C17         3.8020   -1.5450    2.0120 c3        1 MOL      0.181374
     55 C18         4.9730   -1.2870    2.9790 c         1 MOL      0.502272
     56 O9          4.8190   -0.5250    3.9290 o         1 MOL     -0.538798
     57 H25         3.1210    0.3270    2.7170 hn        1 MOL      0.274334
     58 H26         4.1860   -1.7710    1.0130 h1        1 MOL      0.018384
     59 H27         3.2820   -2.4040    2.4450 h1        1 MOL      0.018384
     60 N6          6.1290   -1.9580    2.8360 n         1 MOL     -0.408973
     61 C19         6.5280   -2.8790    1.7710 c3        1 MOL      0.021524
     62 C20         7.0900   -2.2670    0.5120 c         1 MOL      0.345649
     63 O10         7.7590   -1.2500    0.4590 o         1 MOL     -0.407786
     64 C21         7.6310   -3.8040    2.3370 c3        1 MOL     -0.101094
     65 C22         7.3320   -4.3950    3.6870 c         1 MOL      0.730962
     66 O11         7.4820   -3.6700    4.6670 o         1 MOL     -0.688940
     67 O12         6.9870   -5.5760    3.6900 o         1 MOL     -0.688940
     68 H28         6.8370   -1.7400    3.5280 hn        1 MOL      0.311744
     69 H29         5.6690   -3.4910    1.4980 h1        1 MOL     -0.007102
     70 H30         8.5770   -3.2480    2.3730 hc        1 MOL      0.021260
     71 H31         7.8030   -4.5770    1.5900 hc        1 MOL      0.021260
     72 N7          6.8080   -2.9000   -0.6350 n         1 MOL     -0.120515
     73 C23         7.1030   -2.3920   -1.9390 c3        1 MOL     -0.423904
     74 C24         6.7620   -0.8400   -2.1870 c         1 MOL      0.560919
     75 O13         7.6120    0.0310   -2.3430 o         1 MOL     -0.524136
     76 H32         6.4200   -3.8280   -0.5120 hn        1 MOL      0.186865
     77 H33         6.4370   -2.9200   -2.6180 h1        1 MOL      0.149717
     78 H34         8.1520   -2.5680   -2.1440 h1        1 MOL      0.149717
     79 N8          5.4800   -0.5400   -2.1660 n         1 MOL     -0.359381
     80 C25         4.9670    0.7720   -2.2830 c3        1 MOL      0.063567
     81 C26         5.1020    1.4770   -0.9230 c         1 MOL      0.507036
     82 O14         5.0840    0.8220    0.1480 o         1 MOL     -0.501853
     83 C27         3.5420    0.6790   -2.8420 c3        1 MOL      0.215324
     84 C28         3.4650    0.2670   -4.2810 c3        1 MOL     -0.232244
     85 O15         3.0600    2.0230   -2.7010 oh        1 MOL     -0.539124
     86 H35         4.8340   -1.2930   -1.9540 hn        1 MOL      0.186450
     87 H36         5.6060    1.3400   -2.9540 h1        1 MOL      0.064624
     88 H37         2.9610    0.0020   -2.2050 h1        1 MOL      0.128588
     89 H38         2.1120    1.9560   -2.5930 ho        1 MOL      0.373198
     90 H39         2.4060    0.2180   -4.5380 hc        1 MOL      0.062498
     91 H40         4.0340    0.9240   -4.9240 hc        1 MOL      0.062498
     92 H41         3.8580   -0.7310   -4.4530 hc        1 MOL      0.062498
     93 N9          5.3350    2.7810   -0.9880 n         1 MOL     -0.298103
     94 C29         5.3760    3.7590    0.1050 c3        1 MOL     -0.032328
     95 C30         3.9560    4.3370    0.4260 c         1 MOL      0.332952
     96 O16         3.7780    5.1420    1.2890 o         1 MOL     -0.531387
     97 C31         6.3770    4.9500   -0.1500 c3        1 MOL      0.026145
     98 C32         5.9680    5.9010   -1.3480 c3        1 MOL      0.172645
     99 C33         7.8550    4.5010   -0.1280 c3        1 MOL     -0.121824
    100 C34         6.9190    6.9880   -1.8300 c3        1 MOL     -0.549337
    101 H42         5.3300    3.2630   -1.8830 hn        1 MOL      0.249535
    102 H43         5.7920    3.2150    0.9470 h1        1 MOL      0.140621
    103 H44         6.3480    5.6320    0.7070 hc        1 MOL      0.024890
    104 H45         5.0750    6.3160   -0.8670 hc        1 MOL      0.015760
    105 H46         5.6810    5.2560   -2.1770 hc        1 MOL      0.015760
    106 H47         8.2800    4.1130    0.8020 hc        1 MOL      0.031218
    107 H48         7.9170    3.5650   -0.6830 hc        1 MOL      0.031218
    108 H49         8.5030    5.2460   -0.5960 hc        1 MOL      0.031218
    109 H50         7.8400    6.5990   -2.2880 hc        1 MOL      0.138597
    110 H51         6.3520    7.6340   -2.5020 hc        1 MOL      0.138597
    111 H52         7.1560    7.6390   -0.9900 hc        1 MOL      0.138597
    112 N10         2.9370    3.9340   -0.2960 n         1 MOL      0.000551
    113 C35         1.5700    4.5450   -0.4080 c3        1 MOL      0.029458
    114 C36         0.4520    3.4810   -0.4700 c         1 MOL      0.287344
    115 O17         0.6210    2.4670   -1.1420 o         1 MOL     -0.405403
    116 C37         1.5240    5.5710   -1.6250 c3        1 MOL      0.416371
    117 C38         1.5670    4.9780   -3.0140 c3        1 MOL     -0.374866
    118 O18         2.5980    6.5200   -1.5800 oh        1 MOL     -0.697043
    119 H53         3.2520    3.2130   -0.9290 hn        1 MOL     -0.047747
    120 H54         1.3250    5.1150    0.4960 h1        1 MOL      0.061757
    121 H55         0.5960    6.1290   -1.4570 h1        1 MOL     -0.024907
    122 H56         2.3300    7.2180   -2.1880 ho        1 MOL      0.419255
    123 H57         0.8970    4.1280   -3.1710 hc        1 MOL      0.088918
    124 H58         1.2790    5.7780   -3.7030 hc        1 MOL      0.088918
    125 H59         2.5170    4.5010   -3.2560 hc        1 MOL      0.088918
    126 N11        -0.6540    3.7580    0.2130 n         1 MOL     -0.337175
    127 C39        -1.9060    3.0010    0.2090 c3        1 MOL     -0.010332
    128 C40        -2.4600    2.8020   -1.2580 c         1 MOL      0.371924
    129 O19        -2.2180    3.5710   -2.2000 o         1 MOL     -0.521506
    130 C41        -2.9610    3.7620    1.1120 c3        1 MOL      0.185786
    131 C42        -3.4150    5.0940    0.5610 c3        1 MOL     -0.021658
    132 O20        -2.5240    4.2270    2.3810 oh        1 MOL     -0.581648
    133 H60        -0.6760    4.6260    0.7270 hn        1 MOL      0.293708
    134 H61        -1.6090    2.0170    0.5700 h1        1 MOL      0.135685
    135 H62        -3.8160    3.0990    1.2580 h1        1 MOL      0.085568
    136 H63        -3.2240    4.0690    3.0110 ho        1 MOL      0.367535
    137 H64        -4.0040    5.5960    1.3260 hc        1 MOL      0.002565
    138 H65        -2.5810    5.7580    0.3540 hc        1 MOL      0.002565
    139 H66        -3.9880    5.0770   -0.3690 hc        1 MOL      0.002565
    140 N12        -3.3100    1.7840   -1.3550 n         1 MOL     -0.092568
    141 C43        -4.0960    1.4590   -2.5610 c3        1 MOL     -0.164984
    142 C44        -4.1960   -0.0580   -2.8090 c         1 MOL      0.703495
    143 O21        -4.2290   -0.4020   -3.9660 o         1 MOL     -0.590962
    144 C45        -5.5070    1.9280   -2.4110 c3        1 MOL      0.018351
    145 C46        -5.6150    3.3770   -2.4630 c3        1 MOL      0.092092
    146 C47        -7.0790    3.6950   -2.7400 c3        1 MOL      0.001463
    147 C48        -7.4240    5.1700   -2.7950 c3        1 MOL      0.027333
    148 N13        -8.8700    5.4390   -2.8860 n4        1 MOL     -0.310940
    149 H67        -3.3890    1.1990   -0.5300 hn        1 MOL      0.056034
    150 H68        -3.6730    2.0130   -3.4030 h1        1 MOL      0.117360
    151 H69        -5.7260    1.6680   -1.3780 hc        1 MOL      0.003097
    152 H70        -6.0360    1.4030   -3.2150 hc        1 MOL      0.003097
    153 H71        -5.0640    3.7790   -3.3060 hc        1 MOL     -0.005397
    154 H72        -5.3100    3.8340   -1.5160 hc        1 MOL     -0.005397
    155 H73        -7.6700    3.0700   -2.0630 hc        1 MOL      0.025591
    156 H74        -7.3460    3.2620   -3.7080 hc        1 MOL      0.025591
    157 H75        -6.8180    5.6210   -3.5780 hx        1 MOL      0.069562
    158 H76        -7.1160    5.6190   -1.8420 hx        1 MOL      0.069562
    159 H77        -9.2200    5.4080   -3.8250 hn        1 MOL      0.315295
    160 H78        -9.4870    4.8230   -2.3760 hn        1 MOL      0.315295
    161 H79        -9.1140    6.3250   -2.4770 hn        1 MOL      0.315295
    162 N14        -4.3920   -0.9500   -1.8120 n         1 MOL     -0.383306
    163 C49        -4.3360   -2.4170   -1.9010 c3        1 MOL     -0.217087
    164 C50        -5.7850   -3.0420   -1.9010 c         1 MOL      0.343766
    165 O22        -6.6590   -2.7660   -1.0930 o         1 MOL     -0.481568
    166 C51        -3.5560   -2.8550   -0.6700 c3        1 MOL      0.708745
    167 C52        -3.2650   -4.3830   -0.5600 c3        1 MOL     -0.867853
    168 C53        -2.7370   -5.0170   -1.8660 c         1 MOL      0.899187
    169 O23        -1.5900   -5.5300   -1.8920 o         1 MOL     -0.739035
    170 O24        -3.5290   -5.2340   -2.7990 o         1 MOL     -0.739035
    171 H80        -4.3390   -0.5710   -0.8790 hn        1 MOL      0.196071
    172 H81        -3.8160   -2.6500   -2.8290 h1        1 MOL      0.118753
    173 H82        -4.2460   -2.6900    0.1530 hc        1 MOL     -0.066302
    174 H83        -2.6270   -2.2840   -0.6390 hc        1 MOL     -0.066302
    175 H84        -4.1720   -4.8950   -0.2380 hc        1 MOL      0.203011
    176 H85        -2.5380   -4.6300    0.2220 hc        1 MOL      0.203011
    177 N15        -6.0670   -3.9920   -2.7640 n         1 MOL     -0.159495
    178 C54        -7.2870   -4.7790   -2.9110 c3        1 MOL     -0.181338
    179 H86        -7.4510   -5.3660   -2.0070 h1        1 MOL      0.082783
    180 H87        -8.1330   -4.1110   -3.0680 h1        1 MOL      0.082783
    181 H88        -7.1870   -5.4490   -3.7650 h1        1 MOL      0.082783
    182 H89        -5.3930   -4.2170   -3.4860 hn        1 MOL      0.293762
    183 Ca1         0.9420   -5.4410   -2.4110 Ca        1 MOL      1.584334
    184 O25         0.6090   -3.5290   -4.3040 oh        1 MOL     -0.824897
    185 H90         0.2060   -2.8700   -3.7530 ho        1 MOL      0.407320
    186 H91         0.4810   -3.2140   -5.1990 ho        1 MOL      0.407320
    187 O26         3.2950   -5.7530   -3.4360 oh        1 MOL     -0.824897
    188 H92         3.5950   -6.2400   -4.1990 ho        1 MOL      0.407320
    189 H93         4.0000   -5.8400   -2.7950 ho        1 MOL      0.407320
    190 O27        -0.4670   -6.6500   -4.3460 oh        1 MOL     -0.824897
    191 H94        -0.2790   -6.5840   -5.2820 ho        1 MOL      0.407320
    192 H95        -0.4880   -7.5920   -4.1740 ho        1 MOL      0.407320
@<TRIPOS>BOND
     1    1    2 1   
     2    1    4 1   
     3    1    5 1   
     4    1    6 1   
     5    2    3 2   
     6    2    7 1   
     7    7    8 1   
     8    7   15 1   
     9    8    9 1   
    10    8   11 1   
    11    8   16 1   
    12    9   10 2   
    13    9   19 1   
    14   11   12 1   
    15   11   17 1   
    16   11   18 1   
    17   12   13 1   
    18   12   14 1   
    19   19   20 1   
    20   19   28 1   
    21   20   21 1   
    22   20   23 1   
    23   20   29 1   
    24   21   22 2   
    25   21   41 1   
    26   23   24 1   
    27   23   30 1   
    28   23   31 1   
    29   24   25 1   
    30   24   32 1   
    31   24   33 1   
    32   25   26 1   
    33   25   34 1   
    34   25   35 1   
    35   26   27 1   
    36   26   36 1   
    37   26   37 1   
    38   27   38 1   
    39   27   39 1   
    40   27   40 1   
    41   41   42 1   
    42   41   49 1   
    43   42   43 1   
    44   42   45 1   
    45   42   50 1   
    46   43   44 2   
    47   43   53 1   
    48   45   46 1   
    49   45   51 1   
    50   45   52 1   
    51   46   47 1   
    52   46   48 1   
    53   53   54 1   
    54   53   57 1   
    55   54   55 1   
    56   54   58 1   
    57   54   59 1   
    58   55   56 2   
    59   55   60 1   
    60   60   61 1   
    61   60   68 1   
    62   61   62 1   
    63   61   64 1   
    64   61   69 1   
    65   62   63 2   
    66   62   72 1   
    67   64   65 1   
    68   64   70 1   
    69   64   71 1   
    70   65   66 1   
    71   65   67 1   
    72   72   73 1   
    73   72   76 1   
    74   73   74 1   
    75   73   77 1   
    76   73   78 1   
    77   74   75 2   
    78   74   79 1   
    79   79   80 1   
    80   79   86 1   
    81   80   81 1   
    82   80   83 1   
    83   80   87 1   
    84   81   82 2   
    85   81   93 1   
    86   83   84 1   
    87   83   85 1   
    88   83   88 1   
    89   84   90 1   
    90   84   91 1   
    91   84   92 1   
    92   85   89 1   
    93   93   94 1   
    94   93  101 1   
    95   94   95 1   
    96   94   97 1   
    97   94  102 1   
    98   95   96 2   
    99   95  112 1   
   100   97   98 1   
   101   97   99 1   
   102   97  103 1   
   103   98  100 1   
   104   98  104 1   
   105   98  105 1   
   106   99  106 1   
   107   99  107 1   
   108   99  108 1   
   109  100  109 1   
   110  100  110 1   
   111  100  111 1   
   112  112  113 1   
   113  112  119 1   
   114  113  114 1   
   115  113  116 1   
   116  113  120 1   
   117  114  115 2   
   118  114  126 1   
   119  116  117 1   
   120  116  118 1   
   121  116  121 1   
   122  117  123 1   
   123  117  124 1   
   124  117  125 1   
   125  118  122 1   
   126  126  127 1   
   127  126  133 1   
   128  127  128 1   
   129  127  130 1   
   130  127  134 1   
   131  128  129 2   
   132  128  140 1   
   133  130  131 1   
   134  130  132 1   
   135  130  135 1   
   136  131  137 1   
   137  131  138 1   
   138  131  139 1   
   139  132  136 1   
   140  140  141 1   
   141  140  149 1   
   142  141  142 1   
   143  141  144 1   
   144  141  150 1   
   145  142  143 2   
   146  142  162 1   
   147  144  145 1   
   148  144  151 1   
   149  144  152 1   
   150  145  146 1   
   151  145  153 1   
   152  145  154 1   
   153  146  147 1   
   154  146  155 1   
   155  146  156 1   
   156  147  148 1   
   157  147  157 1   
   158  147  158 1   
   159  148  159 1   
   160  148  160 1   
   161  148  161 1   
   162  162  163 1   
   163  162  171 1   
   164  163  164 1   
   165  163  166 1   
   166  163  172 1   
   167  164  165 2   
   168  164  177 1   
   169  166  167 1   
   170  166  173 1   
   171  166  174 1   
   172  167  168 1   
   173  167  175 1   
   174  167  176 1   
   175  168  169 1   
   176  168  170 1   
   177  177  178 1   
   178  177  182 1   
   179  178  179 1   
   180  178  180 1   
   181  178  181 1   
   182  184  185 1   
   183  184  186 1   
   184  187  188 1   
   185  187  189 1   
   186  190  191 1   
   187  190  192 1   
@<TRIPOS>SUBSTRUCTURE
     1 MOL         1 TEMP              0 ****  ****    0 ROOT
