@<TRIPOS>MOLECULE
MOL
  181   177     1     0     0
SMALL
resp


@<TRIPOS>ATOM
      1 C1          9.8440    7.1970   -0.5220 c3        1 MOL     -0.237045
      2 C2          8.8290    6.0550   -0.2620 c         1 MOL      0.500578
      3 O1          7.7080    6.4080    0.1630 o         1 MOL     -0.542809
      4 H1          9.9220    7.8220    0.3670 hc        1 MOL      0.060489
      5 H2         10.8210    6.7710   -0.7520 hc        1 MOL      0.060489
      6 H3          9.5040    7.8020   -1.3620 hc        1 MOL      0.060489
      7 N1          9.0290    4.8510   -0.7540 n         1 MOL     -0.301746
      8 C3         10.2980    4.2280   -1.1360 c3        1 MOL      0.029949
      9 C4         11.1610    3.5470   -0.0930 c         1 MOL      0.510508
     10 O2         12.2680    3.1250   -0.2750 o         1 MOL     -0.529683
     11 C5         10.1240    3.0900   -2.1510 c3        1 MOL     -0.332758
     12 C6          9.2560    1.9610   -1.8370 c         1 MOL      0.942864
     13 O3          8.4580    2.0680   -0.9110 o         1 MOL     -0.801585
     14 O4          9.1760    0.9610   -2.5700 o         1 MOL     -0.801585
     15 H4          8.2220    4.2430   -0.7010 hn        1 MOL      0.236816
     16 H5         10.9090    4.9750   -1.6540 h1        1 MOL      0.084067
     17 H6         11.1400    2.7560   -2.3480 hc        1 MOL      0.075251
     18 H7          9.7300    3.5490   -3.0650 hc        1 MOL      0.075251
     19 N2         10.5640    3.5630    1.1170 n         1 MOL     -0.439825
     20 C7         10.9810    2.8490    2.2910 c3        1 MOL      0.276076
     21 C8         10.2590    1.4750    2.5970 c         1 MOL      0.382486
     22 O5         10.5320    0.8740    3.6140 o         1 MOL     -0.540607
     23 C9         10.9800    3.7130    3.5050 c3        1 MOL     -0.214119
     24 H8          9.6050    3.8630    1.1450 hn        1 MOL      0.246809
     25 H9         12.0270    2.5580    2.1530 h1        1 MOL      0.025436
     26 H10        11.4740    3.2200    4.3350 hc        1 MOL      0.054633
     27 H11        11.4730    4.6640    3.3130 hc        1 MOL      0.054633
     28 H12         9.9640    3.9320    3.8590 hc        1 MOL      0.054633
     29 N3          9.3200    0.9920    1.7890 n         1 MOL     -0.206831
     30 C10         8.5690   -0.2510    2.1200 c3        1 MOL     -0.006396
     31 C11         8.2180   -1.1620    0.9330 c         1 MOL      0.480402
     32 O6          8.4900   -0.7840   -0.1960 o         1 MOL     -0.521962
     33 C12         7.2300    0.2470    2.8070 c3        1 MOL     -0.327157
     34 C13         6.2490    1.0510    1.9170 c         1 MOL      0.752793
     35 O7          5.8620    0.6220    0.8630 o         1 MOL     -0.695945
     36 O8          5.6840    2.0810    2.4370 o         1 MOL     -0.695945
     37 H13         9.2130    1.4650    0.9070 hn        1 MOL      0.132954
     38 H14         9.1360   -0.9040    2.7820 h1        1 MOL      0.080333
     39 H15         7.5130    0.8590    3.6720 hc        1 MOL      0.099668
     40 H16         6.6850   -0.5750    3.2690 hc        1 MOL      0.099668
     41 N4          7.5990   -2.3310    1.0890 n         1 MOL     -0.367017
     42 C14         7.3770   -3.4450    0.0800 c3        1 MOL     -0.064834
     43 C15         6.1250   -3.1560   -0.7630 c         1 MOL      0.696536
     44 O9          5.6280   -2.0350   -0.6740 o         1 MOL     -0.571237
     45 H17         7.4100   -2.6630    2.0310 hn        1 MOL      0.266623
     46 H18         7.3750   -4.4000    0.6080 h1        1 MOL      0.063776
     47 H19         8.2330   -3.4250   -0.5990 h1        1 MOL      0.063776
     48 N5          5.5660   -4.1600   -1.4270 n         1 MOL     -0.552014
     49 C16         4.3710   -4.1070   -2.2060 c3        1 MOL     -0.236204
     50 C17         3.2180   -4.7330   -1.4210 c         1 MOL      0.864742
     51 O10         3.2260   -5.9490   -1.1070 o         1 MOL     -0.602739
     52 C18         4.6160   -4.9520   -3.4860 c3        1 MOL     -0.252653
     53 C19         5.7490   -4.4140   -4.3280 c         1 MOL      0.661066
     54 N6          6.7230   -5.1970   -4.5530 n         1 MOL     -0.730220
     55 O11         5.8440   -3.2150   -4.6880 o         1 MOL     -0.603946
     56 H20         6.0140   -5.0580   -1.3110 hn        1 MOL      0.302875
     57 H21         4.1640   -3.0520   -2.4000 h1        1 MOL      0.154606
     58 H22         3.6650   -5.0940   -4.0030 hc        1 MOL      0.107689
     59 H23         4.7750   -5.9990   -3.2310 hc        1 MOL      0.107689
     60 H24         6.6940   -6.1660   -4.3060 hn        1 MOL      0.362474
     61 H25         7.5360   -4.7930   -5.0040 hn        1 MOL      0.362474
     62 N7          2.1890   -3.9640   -1.1460 n         1 MOL     -0.688978
     63 C20         1.0630   -4.2160   -0.2440 c3        1 MOL      0.143635
     64 C21         1.2220   -3.5850    1.1170 c         1 MOL      0.644161
     65 O12         2.1530   -2.8910    1.3830 o         1 MOL     -0.568642
     66 H26         2.2750   -2.9800   -1.3490 hn        1 MOL      0.389131
     67 H27         0.9610   -5.2730   -0.0040 h1        1 MOL      0.052837
     68 H28         0.1780   -3.8640   -0.7520 h1        1 MOL      0.052837
     69 N8          0.3660   -3.8620    2.0640 n         1 MOL     -0.527141
     70 C22        -0.8690   -4.7060    2.0470 c3        1 MOL      0.021828
     71 C23        -2.0760   -3.7910    2.2840 c         1 MOL      0.490024
     72 O13        -3.1550   -4.2520    2.6660 o         1 MOL     -0.586337
     73 C24        -0.7490   -5.9500    2.9870 c3        1 MOL      0.455072
     74 C25         0.1330   -7.0420    2.3660 c3        1 MOL     -0.350430
     75 O14        -0.0190   -5.5540    4.0710 oh        1 MOL     -0.621420
     76 H29         0.6500   -3.4650    2.9500 hn        1 MOL      0.313000
     77 H30        -1.0470   -5.0770    1.0340 h1        1 MOL      0.059195
     78 H31        -1.6990   -6.3530    3.3190 h1        1 MOL     -0.010914
     79 H32        -0.6050   -5.5090    4.8300 ho        1 MOL      0.388179
     80 H33         1.1500   -6.6930    2.2000 hc        1 MOL      0.079325
     81 H34         0.0700   -7.9680    2.9270 hc        1 MOL      0.079325
     82 H35        -0.2450   -7.1590    1.3450 hc        1 MOL      0.079325
     83 N9         -2.0300   -2.4650    1.9420 n         1 MOL     -0.434142
     84 C26        -3.1140   -1.4620    2.2080 c3        1 MOL     -0.138510
     85 C27        -3.2720   -0.6680    0.8620 c         1 MOL      0.503299
     86 O15        -2.2470   -0.1110    0.3880 o         1 MOL     -0.547057
     87 C28        -2.8370   -0.6640    3.5800 c3        1 MOL     -0.001160
     88 C29        -2.9710   -1.6510    4.7440 c3        1 MOL      0.033408
     89 C30        -3.8680    0.4840    3.7250 c3        1 MOL     -0.187759
     90 C31        -2.6470   -1.0740    6.0940 c3        1 MOL     -0.109607
     91 H36        -1.2460   -2.1530    1.3850 hn        1 MOL      0.280183
     92 H37        -4.0440   -1.9710    2.4560 h1        1 MOL      0.175821
     93 H38        -1.8230   -0.2810    3.6280 hc        1 MOL      0.042230
     94 H39        -2.3270   -2.5340    4.7160 hc        1 MOL      0.019550
     95 H40        -3.9880   -2.0350    4.8380 hc        1 MOL      0.019550
     96 H41        -3.8070    1.1510    2.8650 hc        1 MOL      0.097126
     97 H42        -4.8490    0.0620    3.9470 hc        1 MOL      0.097126
     98 H43        -3.4790    1.1800    4.4680 hc        1 MOL      0.097126
     99 H44        -3.1370   -0.1330    6.3550 hc        1 MOL      0.011283
    100 H45        -2.7240   -1.7540    6.9400 hc        1 MOL      0.011283
    101 H46        -1.5690   -0.8760    6.0650 hc        1 MOL      0.011283
    102 N10        -4.4180   -0.4900    0.2820 n         1 MOL     -0.418848
    103 C32        -5.6190   -1.3160    0.3040 c3        1 MOL      0.052269
    104 C33        -6.7900   -0.5790   -0.4520 c         1 MOL      0.589995
    105 O16        -6.5210    0.2820   -1.2990 o         1 MOL     -0.480469
    106 C34        -5.3330   -2.7290   -0.2470 c3        1 MOL     -0.028413
    107 C35        -4.7600   -2.8180   -1.5930 c         1 MOL      0.672259
    108 O17        -3.5230   -2.7000   -1.6850 o         1 MOL     -0.718700
    109 O18        -5.4150   -2.9540   -2.6020 o         1 MOL     -0.718700
    110 H47        -4.3950    0.1950   -0.4560 hn        1 MOL      0.309362
    111 H48        -5.8500   -1.5670    1.3350 h1        1 MOL      0.018499
    112 H49        -6.2280   -3.3580   -0.2780 hc        1 MOL     -0.016439
    113 H50        -4.7020   -3.2300    0.4780 hc        1 MOL     -0.016439
    114 N11        -7.9850   -0.8800    0.0130 n         1 MOL     -0.751452
    115 C36        -9.2930   -0.4080   -0.4550 c3        1 MOL      0.733209
    116 C37       -10.0660    0.5670    0.5370 c         1 MOL      0.074921
    117 O19        -9.9960    0.4800    1.7660 o         1 MOL     -0.485970
    118 C38       -10.1320   -1.6090   -0.8540 c3        1 MOL     -0.142690
    119 C39       -11.3320   -1.2680   -1.6590 ca        1 MOL      0.130999
    120 C40       -12.5680   -1.0280   -0.9690 ca        1 MOL     -0.247883
    121 C41       -11.1790   -1.0570   -3.0350 ca        1 MOL     -0.247883
    122 C42       -13.7030   -0.6250   -1.7460 ca        1 MOL     -0.070547
    123 C43       -12.2480   -0.5550   -3.7840 ca        1 MOL     -0.070547
    124 C44       -13.5140   -0.4000   -3.1420 ca        1 MOL     -0.165852
    125 H51        -7.9580   -1.4660    0.8370 hn        1 MOL      0.331922
    126 H52        -9.0710    0.1510   -1.3670 h1        1 MOL     -0.050352
    127 H53       -10.4220   -2.1650    0.0400 hc        1 MOL      0.018284
    128 H54        -9.4420   -2.1870   -1.4680 hc        1 MOL      0.018284
    129 H55       -12.6790   -1.1830    0.0950 ha        1 MOL      0.168012
    130 H56       -10.2510   -1.1960   -3.5740 ha        1 MOL      0.168012
    131 H57       -14.7170   -0.5860   -1.3700 ha        1 MOL      0.104983
    132 H58       -12.0900   -0.2380   -4.7950 ha        1 MOL      0.104983
    133 H59       -14.3370   -0.0930   -3.7690 ha        1 MOL      0.098407
    134 N12       -10.8060    1.5270    0.0960 n         1 MOL      0.173534
    135 C45       -10.6140    2.3120   -1.1690 c3        1 MOL      0.128910
    136 C46        -9.1910    2.8090   -1.3230 c         1 MOL      0.329237
    137 O20        -8.5530    2.5990   -2.3530 o         1 MOL     -0.549780
    138 C47       -11.6620    3.4410   -1.1900 c3        1 MOL      0.069690
    139 C48       -12.7420    2.8580   -0.3330 c3        1 MOL     -0.025176
    140 C49       -12.0830    1.9380    0.6740 c3        1 MOL     -0.304242
    141 H60       -10.7390    1.5760   -1.9610 h1        1 MOL     -0.012655
    142 H61       -11.2170    4.2990   -0.6940 hc        1 MOL      0.002448
    143 H62       -12.0260    3.7220   -2.1760 hc        1 MOL      0.002448
    144 H63       -13.1760    3.7240    0.1720 hc        1 MOL      0.004759
    145 H64       -13.4410    2.3240   -0.9740 hc        1 MOL      0.004759
    146 H65       -11.8690    2.6370    1.4750 h1        1 MOL      0.113076
    147 H66       -12.7540    1.1100    0.8960 h1        1 MOL      0.113076
    148 N13        -8.6050    3.3920   -0.3060 n         1 MOL     -0.385839
    149 C50        -7.2010    3.8530   -0.2630 c3        1 MOL      0.415816
    150 C51        -7.2540    5.1500   -1.1100 c         1 MOL      0.295178
    151 O21        -7.7340    6.2010   -0.6550 o         1 MOL     -0.563676
    152 C52        -6.8560    4.1380    1.1800 c3        1 MOL     -0.156543
    153 C53        -6.9230    2.8250    2.0010 c3        1 MOL      0.012466
    154 C54        -6.8040    2.9730    3.5230 c         1 MOL      0.597454
    155 O22        -6.8710    1.9400    4.2440 o         1 MOL     -0.700861
    156 O23        -6.3500    4.0630    4.0440 o         1 MOL     -0.700861
    157 H67        -9.0220    3.3320    0.6150 hn        1 MOL      0.265744
    158 H68        -6.5280    3.1080   -0.6820 h1        1 MOL      0.001832
    159 H69        -7.5920    4.8340    1.5700 hc        1 MOL      0.027491
    160 H70        -5.8340    4.5370    1.1800 hc        1 MOL      0.027491
    161 H71        -6.1100    2.1910    1.6530 hc        1 MOL     -0.035455
    162 H72        -7.8250    2.2550    1.8020 hc        1 MOL     -0.035455
    163 N14        -6.7820    5.2130   -2.3470 n         1 MOL     -0.208562
    164 C55        -5.9720    4.2450   -3.1800 c3        1 MOL     -0.292971
    165 H73        -6.5150    3.3040   -3.2720 h1        1 MOL      0.122167
    166 H74        -5.8060    4.6670   -4.1700 h1        1 MOL      0.122167
    167 H75        -5.0120    4.0640   -2.6970 h1        1 MOL      0.122167
    168 H76        -6.9910    6.1190   -2.7460 hn        1 MOL      0.226565
    169 Ca1         6.6270    0.4640   -1.5340 Ca        1 MOL      1.768456
    170 O24         4.9190    2.3970   -1.1710 oh        1 MOL     -0.826999
    171 H77         4.8610    2.8750   -0.3380 ho        1 MOL      0.410018
    172 H78         4.2410    2.7770   -1.7230 ho        1 MOL      0.410018
    173 O25         7.3680   -1.5520   -3.2810 oh        1 MOL     -0.826999
    174 H79         6.8160   -2.2820   -3.5520 ho        1 MOL      0.410018
    175 H80         8.2480   -1.7950   -3.5610 ho        1 MOL      0.410018
    176 O26         4.4420   -0.1390   -2.9910 oh        1 MOL     -0.826999
    177 H81         3.5700   -0.5470   -3.0110 ho        1 MOL      0.410018
    178 H82         4.7500   -0.1810   -3.9000 ho        1 MOL      0.410018
    179 O27         6.4140    2.1200   -3.7490 oh        1 MOL     -0.826999
    180 H83         6.3900    3.0660   -3.8790 ho        1 MOL      0.410018
    181 H84         6.1030    1.7550   -4.5790 ho        1 MOL      0.410018
@<TRIPOS>BOND
     1    1    2 1   
     2    1    4 1   
     3    1    5 1   
     4    1    6 1   
     5    2    3 2   
     6    2    7 1   
     7    7    8 1   
     8    7   15 1   
     9    8    9 1   
    10    8   11 1   
    11    8   16 1   
    12    9   10 2   
    13    9   19 1   
    14   11   12 1   
    15   11   17 1   
    16   11   18 1   
    17   12   13 1   
    18   12   14 1   
    19   19   20 1   
    20   19   24 1   
    21   20   21 1   
    22   20   23 1   
    23   20   25 1   
    24   21   22 2   
    25   21   29 1   
    26   23   26 1   
    27   23   27 1   
    28   23   28 1   
    29   29   30 1   
    30   29   37 1   
    31   30   31 1   
    32   30   33 1   
    33   30   38 1   
    34   31   32 2   
    35   31   41 1   
    36   33   34 1   
    37   33   39 1   
    38   33   40 1   
    39   34   35 1   
    40   34   36 1   
    41   41   42 1   
    42   41   45 1   
    43   42   43 1   
    44   42   46 1   
    45   42   47 1   
    46   43   44 2   
    47   43   48 1   
    48   48   49 1   
    49   48   56 1   
    50   49   50 1   
    51   49   52 1   
    52   49   57 1   
    53   50   51 2   
    54   50   62 1   
    55   52   53 1   
    56   52   58 1   
    57   52   59 1   
    58   53   54 1   
    59   53   55 2   
    60   54   60 1   
    61   54   61 1   
    62   62   63 1   
    63   62   66 1   
    64   63   64 1   
    65   63   67 1   
    66   63   68 1   
    67   64   65 2   
    68   64   69 1   
    69   69   70 1   
    70   69   76 1   
    71   70   71 1   
    72   70   73 1   
    73   70   77 1   
    74   71   72 2   
    75   71   83 1   
    76   73   74 1   
    77   73   75 1   
    78   73   78 1   
    79   74   80 1   
    80   74   81 1   
    81   74   82 1   
    82   75   79 1   
    83   83   84 1   
    84   83   91 1   
    85   84   85 1   
    86   84   87 1   
    87   84   92 1   
    88   85   86 2   
    89   85  102 1   
    90   87   88 1   
    91   87   89 1   
    92   87   93 1   
    93   88   90 1   
    94   88   94 1   
    95   88   95 1   
    96   89   96 1   
    97   89   97 1   
    98   89   98 1   
    99   90   99 1   
   100   90  100 1   
   101   90  101 1   
   102  102  103 1   
   103  102  110 1   
   104  103  104 1   
   105  103  106 1   
   106  103  111 1   
   107  104  105 2   
   108  104  114 1   
   109  106  107 1   
   110  106  112 1   
   111  106  113 1   
   112  107  108 1   
   113  107  109 1   
   114  114  115 1   
   115  114  125 1   
   116  115  116 1   
   117  115  118 1   
   118  115  126 1   
   119  116  117 2   
   120  116  134 1   
   121  118  119 1   
   122  118  127 1   
   123  118  128 1   
   124  119  120 ar  
   125  119  121 ar  
   126  120  122 ar  
   127  120  129 1   
   128  121  123 ar  
   129  121  130 1   
   130  122  124 ar  
   131  122  131 1   
   132  123  124 ar  
   133  123  132 1   
   134  124  133 1   
   135  134  135 1   
   136  134  140 1   
   137  135  136 1   
   138  135  138 1   
   139  135  141 1   
   140  136  137 2   
   141  136  148 1   
   142  138  139 1   
   143  138  142 1   
   144  138  143 1   
   145  139  140 1   
   146  139  144 1   
   147  139  145 1   
   148  140  146 1   
   149  140  147 1   
   150  148  149 1   
   151  148  157 1   
   152  149  150 1   
   153  149  152 1   
   154  149  158 1   
   155  150  151 2   
   156  150  163 1   
   157  152  153 1   
   158  152  159 1   
   159  152  160 1   
   160  153  154 1   
   161  153  161 1   
   162  153  162 1   
   163  154  155 1   
   164  154  156 1   
   165  163  164 1   
   166  163  168 1   
   167  164  165 1   
   168  164  166 1   
   169  164  167 1   
   170  170  171 1   
   171  170  172 1   
   172  173  174 1   
   173  173  175 1   
   174  176  177 1   
   175  176  178 1   
   176  179  180 1   
   177  179  181 1   
@<TRIPOS>SUBSTRUCTURE
     1 MOL         1 TEMP              0 ****  ****    0 ROOT
