@<TRIPOS>MOLECULE
MOL
  181   177     1     0     0
SMALL
resp


@<TRIPOS>ATOM
      1 C1          9.8760    7.6670   -0.9150 c3        1 MOL     -0.276054
      2 C2          8.8200    6.6300   -0.3990 c         1 MOL      0.639744
      3 O1          8.0230    7.0530    0.4060 o         1 MOL     -0.568179
      4 H1         10.8200    7.1570   -1.1080 hc        1 MOL      0.065511
      5 H2          9.5170    8.1250   -1.8370 hc        1 MOL      0.065511
      6 H3         10.0270    8.4380   -0.1600 hc        1 MOL      0.065511
      7 N1          8.8850    5.3440   -0.7060 n         1 MOL     -0.594297
      8 C3          9.9040    4.5360   -1.3940 c3        1 MOL      0.342518
      9 C4         10.6910    3.5920   -0.3880 c         1 MOL      0.560230
     10 O2         11.8160    3.1410   -0.7380 o         1 MOL     -0.575610
     11 C5          9.4130    3.7640   -2.5970 c3        1 MOL     -0.452274
     12 C6          8.1690    2.7950   -2.3580 c         1 MOL      0.795162
     13 O3          7.7300    2.0360   -3.2120 o         1 MOL     -0.743279
     14 O4          7.7450    2.6520   -1.2030 o         1 MOL     -0.743279
     15 H4          8.0750    4.8850   -0.3130 hn        1 MOL      0.336172
     16 H5         10.7890    5.1160   -1.6510 h1        1 MOL      0.007966
     17 H6         10.1460    3.0640   -2.9730 hc        1 MOL      0.102349
     18 H7          9.1150    4.4770   -3.3640 hc        1 MOL      0.102349
     19 N2         10.1890    3.4280    0.8760 n         1 MOL     -0.536125
     20 C7         10.8380    2.7580    1.9740 c3        1 MOL      0.259553
     21 C8         10.0470    1.4280    2.4150 c         1 MOL      0.314018
     22 O5         10.3110    0.9190    3.5260 o         1 MOL     -0.529171
     23 C9         11.0030    3.7480    3.1010 c3        1 MOL     -0.313115
     24 H8          9.2970    3.8460    1.0760 hn        1 MOL      0.299586
     25 H9         11.8300    2.5180    1.6110 h1        1 MOL      0.058713
     26 H10        11.5050    4.6080    2.6480 hc        1 MOL      0.087601
     27 H11        10.1070    3.9790    3.6640 hc        1 MOL      0.087601
     28 H12        11.7740    3.5140    3.8330 hc        1 MOL      0.087601
     29 N3          9.1830    0.8160    1.6160 n         1 MOL     -0.098699
     30 C10         8.7050   -0.5990    1.7800 c3        1 MOL      0.093924
     31 C11         8.6220   -1.3760    0.4400 c         1 MOL      0.318632
     32 O6          8.5770   -0.7010   -0.6330 o         1 MOL     -0.488127
     33 C12         7.3700   -0.6110    2.5960 c3        1 MOL     -0.182507
     34 C13         6.3360    0.3500    2.0320 c         1 MOL      0.707733
     35 O7          5.4940    0.9870    2.7940 o         1 MOL     -0.680239
     36 O8          6.3000    0.5100    0.8240 o         1 MOL     -0.680239
     37 H13         9.0020    1.3030    0.7430 hn        1 MOL      0.115487
     38 H14         9.4860   -1.0910    2.3560 h1        1 MOL      0.013304
     39 H15         7.5200   -0.3540    3.6450 hc        1 MOL      0.041323
     40 H16         6.9550   -1.6100    2.4470 hc        1 MOL      0.041323
     41 N4          8.5610   -2.7190    0.5110 n         1 MOL     -0.236633
     42 C14         8.2920   -3.5160   -0.6760 c3        1 MOL     -0.160626
     43 C15         6.9070   -3.3610   -1.2880 c         1 MOL      0.818984
     44 O9          6.3220   -2.2560   -1.3060 o         1 MOL     -0.667888
     45 H17         8.5820   -3.0980    1.4540 hn        1 MOL      0.266675
     46 H18         8.4710   -4.5540   -0.3800 h1        1 MOL      0.082380
     47 H19         9.0470   -3.2910   -1.4310 h1        1 MOL      0.082380
     48 N5          6.2960   -4.4000   -1.7870 n         1 MOL     -0.770043
     49 C16         4.9070   -4.4330   -2.3360 c3        1 MOL      0.411956
     50 C17         3.8980   -4.7480   -1.2130 c         1 MOL      0.546863
     51 O10         4.1840   -5.7030   -0.4100 o         1 MOL     -0.551526
     52 C18         4.7070   -5.4550   -3.4670 c3        1 MOL     -0.291711
     53 C19         3.2990   -5.6330   -3.9810 c         1 MOL      0.610538
     54 N6          2.7810   -6.8520   -4.0650 n         1 MOL     -0.772520
     55 O11         2.5800   -4.6810   -4.1880 o         1 MOL     -0.511011
     56 H20         6.8310   -5.2440   -1.9690 hn        1 MOL      0.342831
     57 H21         4.5790   -3.5090   -2.8070 h1        1 MOL     -0.014201
     58 H22         4.8960   -6.4260   -3.0220 hc        1 MOL      0.057480
     59 H23         5.3770   -5.2770   -4.3050 hc        1 MOL      0.057480
     60 H24         3.4530   -7.5990   -3.9930 hn        1 MOL      0.377539
     61 H25         1.8360   -6.9920   -4.3740 hn        1 MOL      0.377539
     62 N7          2.7540   -4.1280   -1.1970 n         1 MOL     -0.446256
     63 C20         1.7800   -4.1780   -0.0920 c3        1 MOL      0.080340
     64 C21         1.8870   -3.1710    0.9990 c         1 MOL      0.622379
     65 O12         2.8470   -2.4050    1.0470 o         1 MOL     -0.540664
     66 H26         2.6980   -3.3440   -1.8410 hn        1 MOL      0.260167
     67 H27         1.8180   -5.1800    0.3420 h1        1 MOL      0.081411
     68 H28         0.7890   -4.0200   -0.5330 h1        1 MOL      0.081411
     69 N8          1.0070   -3.0560    2.0130 n         1 MOL     -0.659267
     70 C22        -0.1400   -4.0140    2.3510 c3        1 MOL     -0.054716
     71 C23        -1.4830   -3.2960    2.5270 c         1 MOL      0.578754
     72 O13        -2.4440   -4.0000    2.7600 o         1 MOL     -0.569249
     73 C24         0.1220   -4.7760    3.6550 c3        1 MOL      0.503528
     74 C25         1.3780   -5.6470    3.5700 c3        1 MOL     -0.583299
     75 O14         0.3730   -3.8740    4.7080 oh        1 MOL     -0.615084
     76 H29         1.1400   -2.3190    2.6980 hn        1 MOL      0.397058
     77 H30        -0.2730   -4.7470    1.5550 h1        1 MOL      0.061242
     78 H31        -0.7160   -5.4180    3.9100 h1        1 MOL     -0.008618
     79 H32         0.4000   -4.3550    5.5350 ho        1 MOL      0.396997
     80 H33         1.2720   -6.2840    2.6840 hc        1 MOL      0.135700
     81 H34         2.2940   -5.1140    3.3070 hc        1 MOL      0.135700
     82 H35         1.4120   -6.1310    4.5420 hc        1 MOL      0.135700
     83 N9         -1.5910   -1.9490    2.4820 n         1 MOL     -0.400489
     84 C26        -2.8470   -1.2380    2.6230 c3        1 MOL      0.208534
     85 C27        -3.0290   -0.3640    1.3260 c         1 MOL      0.214278
     86 O15        -2.1240    0.3400    0.9920 o         1 MOL     -0.514232
     87 C28        -2.7880   -0.2100    3.7760 c3        1 MOL     -0.031886
     88 C29        -2.5270   -1.0200    5.1340 c3        1 MOL     -0.020331
     89 C30        -4.0220    0.6500    3.8570 c3        1 MOL     -0.043625
     90 C31        -3.4510   -2.1140    5.4900 c3        1 MOL     -0.131976
     91 H36        -0.7050   -1.4660    2.4210 hn        1 MOL      0.265575
     92 H37        -3.7060   -1.8780    2.8060 h1        1 MOL      0.036256
     93 H38        -1.9010    0.4120    3.6170 hc        1 MOL      0.040940
     94 H39        -2.5420   -0.3590    5.9950 hc        1 MOL     -0.005494
     95 H40        -1.5060   -1.3960    5.0910 hc        1 MOL     -0.005494
     96 H41        -3.8400    1.6150    3.3870 hc        1 MOL      0.039317
     97 H42        -4.9290    0.1560    3.5110 hc        1 MOL      0.039317
     98 H43        -4.1570    0.9400    4.9010 hc        1 MOL      0.039317
     99 H44        -3.3160   -2.5260    6.4890 hc        1 MOL      0.023693
    100 H45        -4.4620   -1.7090    5.5600 hc        1 MOL      0.023693
    101 H46        -3.2710   -2.9230    4.7930 hc        1 MOL      0.023693
    102 N10        -4.1590   -0.2860    0.6250 n         1 MOL     -0.075584
    103 C32        -5.4120   -1.0510    0.8150 c3        1 MOL      0.048950
    104 C33        -6.6100   -0.4300    0.1060 c         1 MOL      0.490044
    105 O16        -6.4580    0.4200   -0.7440 o         1 MOL     -0.454309
    106 C34        -5.1340   -2.5120    0.2820 c3        1 MOL     -0.238819
    107 C35        -4.9150   -2.5690   -1.2180 c         1 MOL      0.651821
    108 O17        -5.9600   -2.9060   -1.9570 o         1 MOL     -0.697671
    109 O18        -3.7900   -2.3330   -1.7740 o         1 MOL     -0.697671
    110 H47        -4.1550    0.3160   -0.1870 hn        1 MOL      0.227882
    111 H48        -5.4600   -1.0740    1.9010 h1        1 MOL      0.078123
    112 H49        -6.0230   -3.0140    0.6560 hc        1 MOL      0.030176
    113 H50        -4.2790   -2.9330    0.8180 hc        1 MOL      0.030176
    114 N11        -7.8510   -0.8210    0.5280 n         1 MOL     -0.766369
    115 C36        -9.1160   -0.4570   -0.1700 c3        1 MOL      0.642932
    116 C37        -9.9650    0.4330    0.7190 c         1 MOL      0.184749
    117 O19        -9.7930    0.4260    1.9740 o         1 MOL     -0.481092
    118 C38        -9.8970   -1.7330   -0.6260 c3        1 MOL     -0.031965
    119 C39       -11.0070   -1.5940   -1.6850 ca        1 MOL      0.070677
    120 C40       -12.3340   -1.5000   -1.2370 ca        1 MOL     -0.161124
    121 C41       -10.7610   -1.6200   -3.0720 ca        1 MOL     -0.161124
    122 C42       -13.4240   -1.3710   -2.1580 ca        1 MOL     -0.119105
    123 C43       -11.8170   -1.4470   -4.0250 ca        1 MOL     -0.119105
    124 C44       -13.1380   -1.2630   -3.5150 ca        1 MOL     -0.151791
    125 H51        -7.8820   -1.6390    1.1250 hn        1 MOL      0.365505
    126 H52        -9.0180    0.0440   -1.1270 h1        1 MOL      0.005889
    127 H53       -10.3740   -2.1140    0.2780 hc        1 MOL     -0.015519
    128 H54        -9.2100   -2.5220   -0.9380 hc        1 MOL     -0.015519
    129 H55       -12.6170   -1.5970   -0.1980 ha        1 MOL      0.132042
    130 H56        -9.7470   -1.7430   -3.4300 ha        1 MOL      0.132042
    131 H57       -14.4690   -1.3070   -1.9050 ha        1 MOL      0.108019
    132 H58       -11.6990   -1.4730   -5.1000 ha        1 MOL      0.108019
    133 H59       -13.9070   -1.1350   -4.2690 ha        1 MOL      0.099709
    134 N12       -10.7740    1.3770    0.1940 n         1 MOL     -0.163178
    135 C45       -10.7000    1.9160   -1.1710 c3        1 MOL      0.103845
    136 C46        -9.3080    2.4250   -1.4420 c         1 MOL      0.184022
    137 O20        -8.7310    2.2560   -2.4740 o         1 MOL     -0.492549
    138 C47       -11.7170    3.0410   -1.1770 c3        1 MOL     -0.041287
    139 C48       -12.3860    3.2130    0.1240 c3        1 MOL     -0.174130
    140 C49       -11.5670    2.3000    1.0470 c3        1 MOL     -0.109073
    141 H60       -10.9570    1.1830   -1.9380 h1        1 MOL      0.060528
    142 H61       -11.1750    3.9780   -1.2520 hc        1 MOL      0.042058
    143 H62       -12.4050    2.9080   -2.0190 hc        1 MOL      0.042058
    144 H63       -12.3600    4.2230    0.5420 hc        1 MOL      0.064202
    145 H64       -13.3320    2.6840    0.0100 hc        1 MOL      0.064202
    146 H65       -10.9680    2.9210    1.7150 h1        1 MOL      0.104242
    147 H66       -12.2390    1.6420    1.5940 h1        1 MOL      0.104242
    148 N13        -8.6730    3.1280   -0.4540 n         1 MOL     -0.095863
    149 C50        -7.3690    3.7870   -0.5290 c3        1 MOL      0.225755
    150 C51        -7.5710    5.1200   -1.3250 c         1 MOL      0.311246
    151 O21        -8.1600    6.0720   -0.7460 o         1 MOL     -0.567362
    152 C52        -6.8980    4.0880    0.8860 c3        1 MOL      0.099018
    153 C53        -6.4680    2.7830    1.6380 c3        1 MOL     -0.116577
    154 C54        -6.1850    3.0790    3.1310 c         1 MOL      0.744862
    155 O22        -6.9090    2.6360    4.0430 o         1 MOL     -0.745508
    156 O23        -5.2570    3.9020    3.4020 o         1 MOL     -0.745508
    157 H67        -9.2050    3.1850    0.4000 hn        1 MOL      0.220119
    158 H68        -6.6910    3.1690   -1.1250 h1        1 MOL      0.057503
    159 H69        -7.7320    4.5610    1.4090 hc        1 MOL     -0.024153
    160 H70        -6.0600    4.7640    0.7950 hc        1 MOL     -0.024153
    161 H71        -5.5990    2.3580    1.1310 hc        1 MOL     -0.058313
    162 H72        -7.2440    2.0250    1.6130 hc        1 MOL     -0.058313
    163 N14        -7.1510    5.2670   -2.6080 n         1 MOL     -0.276796
    164 C55        -6.4130    4.3600   -3.5520 c3        1 MOL     -0.179398
    165 H73        -5.7630    3.6960   -2.9830 h1        1 MOL      0.091507
    166 H74        -7.1290    3.7660   -4.1210 h1        1 MOL      0.091507
    167 H75        -5.8110    4.9590   -4.2360 h1        1 MOL      0.091507
    168 H76        -7.3750    6.1660   -2.9990 hn        1 MOL      0.242564
    169 Ca1         6.3530    0.4290   -1.7600 Ca        1 MOL      1.722829
    170 O24         7.8360   -0.8680   -3.7280 oh        1 MOL     -0.811530
    171 H77         7.7940   -0.6580   -4.6530 ho        1 MOL      0.403930
    172 H78         8.1500   -1.7790   -3.7020 ho        1 MOL      0.403930
    173 O25         4.8270   -0.1810   -3.7780 oh        1 MOL     -0.811530
    174 H79         4.0810   -0.7610   -3.9240 ho        1 MOL      0.403930
    175 H80         4.5740    0.6340   -4.2020 ho        1 MOL      0.403930
    176 O26         4.8510    2.5860   -2.0800 oh        1 MOL     -0.811530
    177 H81         4.8940    2.9820   -2.9470 ho        1 MOL      0.403930
    178 H82         4.2510    3.1400   -1.5910 ho        1 MOL      0.403930
    179 O27         3.8320   -0.2660   -0.9330 oh        1 MOL     -0.811530
    180 H83         3.0030   -0.3300   -1.4010 ho        1 MOL      0.403930
    181 H84         3.7570   -0.8820   -0.2020 ho        1 MOL      0.403930
@<TRIPOS>BOND
     1    1    2 1   
     2    1    4 1   
     3    1    5 1   
     4    1    6 1   
     5    2    3 2   
     6    2    7 1   
     7    7    8 1   
     8    7   15 1   
     9    8    9 1   
    10    8   11 1   
    11    8   16 1   
    12    9   10 2   
    13    9   19 1   
    14   11   12 1   
    15   11   17 1   
    16   11   18 1   
    17   12   13 1   
    18   12   14 1   
    19   19   20 1   
    20   19   24 1   
    21   20   21 1   
    22   20   23 1   
    23   20   25 1   
    24   21   22 2   
    25   21   29 1   
    26   23   26 1   
    27   23   27 1   
    28   23   28 1   
    29   29   30 1   
    30   29   37 1   
    31   30   31 1   
    32   30   33 1   
    33   30   38 1   
    34   31   32 2   
    35   31   41 1   
    36   33   34 1   
    37   33   39 1   
    38   33   40 1   
    39   34   35 1   
    40   34   36 1   
    41   41   42 1   
    42   41   45 1   
    43   42   43 1   
    44   42   46 1   
    45   42   47 1   
    46   43   44 2   
    47   43   48 1   
    48   48   49 1   
    49   48   56 1   
    50   49   50 1   
    51   49   52 1   
    52   49   57 1   
    53   50   51 2   
    54   50   62 1   
    55   52   53 1   
    56   52   58 1   
    57   52   59 1   
    58   53   54 1   
    59   53   55 2   
    60   54   60 1   
    61   54   61 1   
    62   62   63 1   
    63   62   66 1   
    64   63   64 1   
    65   63   67 1   
    66   63   68 1   
    67   64   65 2   
    68   64   69 1   
    69   69   70 1   
    70   69   76 1   
    71   70   71 1   
    72   70   73 1   
    73   70   77 1   
    74   71   72 2   
    75   71   83 1   
    76   73   74 1   
    77   73   75 1   
    78   73   78 1   
    79   74   80 1   
    80   74   81 1   
    81   74   82 1   
    82   75   79 1   
    83   83   84 1   
    84   83   91 1   
    85   84   85 1   
    86   84   87 1   
    87   84   92 1   
    88   85   86 2   
    89   85  102 1   
    90   87   88 1   
    91   87   89 1   
    92   87   93 1   
    93   88   90 1   
    94   88   94 1   
    95   88   95 1   
    96   89   96 1   
    97   89   97 1   
    98   89   98 1   
    99   90   99 1   
   100   90  100 1   
   101   90  101 1   
   102  102  103 1   
   103  102  110 1   
   104  103  104 1   
   105  103  106 1   
   106  103  111 1   
   107  104  105 2   
   108  104  114 1   
   109  106  107 1   
   110  106  112 1   
   111  106  113 1   
   112  107  108 1   
   113  107  109 1   
   114  114  115 1   
   115  114  125 1   
   116  115  116 1   
   117  115  118 1   
   118  115  126 1   
   119  116  117 2   
   120  116  134 1   
   121  118  119 1   
   122  118  127 1   
   123  118  128 1   
   124  119  120 ar  
   125  119  121 ar  
   126  120  122 ar  
   127  120  129 1   
   128  121  123 ar  
   129  121  130 1   
   130  122  124 ar  
   131  122  131 1   
   132  123  124 ar  
   133  123  132 1   
   134  124  133 1   
   135  134  135 1   
   136  134  140 1   
   137  135  136 1   
   138  135  138 1   
   139  135  141 1   
   140  136  137 2   
   141  136  148 1   
   142  138  139 1   
   143  138  142 1   
   144  138  143 1   
   145  139  140 1   
   146  139  144 1   
   147  139  145 1   
   148  140  146 1   
   149  140  147 1   
   150  148  149 1   
   151  148  157 1   
   152  149  150 1   
   153  149  152 1   
   154  149  158 1   
   155  150  151 2   
   156  150  163 1   
   157  152  153 1   
   158  152  159 1   
   159  152  160 1   
   160  153  154 1   
   161  153  161 1   
   162  153  162 1   
   163  154  155 1   
   164  154  156 1   
   165  163  164 1   
   166  163  168 1   
   167  164  165 1   
   168  164  166 1   
   169  164  167 1   
   170  170  171 1   
   171  170  172 1   
   172  173  174 1   
   173  173  175 1   
   174  176  177 1   
   175  176  178 1   
   176  179  180 1   
   177  179  181 1   
@<TRIPOS>SUBSTRUCTURE
     1 MOL         1 TEMP              0 ****  ****    0 ROOT
