@<TRIPOS>MOLECULE
MOL
  192   187     1     0     0
SMALL
resp


@<TRIPOS>ATOM
      1 C1         11.0680   -0.4500    0.4740 c3        1 MOL     -0.360689
      2 C2          9.5740   -0.7680    0.2490 c         1 MOL      0.693213
      3 O1          8.8180   -0.7850    1.1780 o         1 MOL     -0.620897
      4 H1         11.2740   -0.4110    1.5440 hc        1 MOL      0.090170
      5 H2         11.6790   -1.2270    0.0150 hc        1 MOL      0.090170
      6 H3         11.3060    0.5130    0.0240 hc        1 MOL      0.090170
      7 N1          9.1360   -0.7870   -0.9950 n         1 MOL     -0.524789
      8 C3          7.7130   -0.9460   -1.3350 c3        1 MOL     -0.016785
      9 C4          7.2870   -2.4330   -1.0610 c         1 MOL      0.491912
     10 O2          7.7480   -3.3010   -1.7680 o         1 MOL     -0.528637
     11 C5          7.4490   -0.5400   -2.7960 c3        1 MOL      0.028517
     12 C6          7.7420    0.8990   -3.1570 c         1 MOL      0.659889
     13 O3          8.7710    1.1440   -3.8140 o         1 MOL     -0.648004
     14 O4          6.8680    1.7520   -2.8150 o         1 MOL     -0.648004
     15 H4          9.7840   -0.6160   -1.7450 hn        1 MOL      0.307517
     16 H5          7.1930   -0.3130   -0.6230 h1        1 MOL      0.101491
     17 H6          6.3870   -0.7800   -2.8580 hc        1 MOL     -0.004458
     18 H7          7.9530   -1.2210   -3.4780 hc        1 MOL     -0.004458
     19 N2          6.5940   -2.6520    0.0280 n         1 MOL     -0.279312
     20 C7          5.9380   -3.9450    0.4010 c3        1 MOL      0.293841
     21 C8          4.5140   -4.0450   -0.2520 c         1 MOL      0.440054
     22 O5          4.2420   -5.0230   -0.9730 o         1 MOL     -0.532639
     23 C9          6.0940   -4.2080    1.8840 c3        1 MOL     -0.137093
     24 C10         7.3240   -3.5160    2.5550 c3        1 MOL      0.032441
     25 C11         7.6460   -4.1960    3.8570 c3        1 MOL      0.003789
     26 C12         8.9940   -3.7100    4.4700 c3        1 MOL      0.072901
     27 N3          9.2300   -4.2480    5.8010 n4        1 MOL     -0.157243
     28 H8          6.5420   -1.8300    0.5990 hn        1 MOL      0.149432
     29 H9          6.4400   -4.7150   -0.1830 h1        1 MOL      0.002635
     30 H10         6.1740   -5.2940    1.9590 hc        1 MOL      0.020589
     31 H11         5.1720   -3.8840    2.3490 hc        1 MOL      0.020589
     32 H12         6.9330   -2.5220    2.7460 hc        1 MOL      0.022027
     33 H13         8.2240   -3.5970    1.9450 hc        1 MOL      0.022027
     34 H14         7.8050   -5.2640    3.6960 hc        1 MOL      0.015058
     35 H15         6.8940   -4.1600    4.6390 hc        1 MOL      0.015058
     36 H16         9.0850   -2.6260    4.4090 hx        1 MOL      0.050277
     37 H17         9.8060   -4.0870    3.8470 hx        1 MOL      0.050277
     38 H18         9.2710   -5.2390    5.9700 hn        1 MOL      0.236005
     39 H19        10.1860   -3.9810    6.0210 hn        1 MOL      0.236005
     40 H20         8.6660   -3.8470    6.5370 hn        1 MOL      0.236005
     41 N4          3.6030   -3.1130   -0.0760 n         1 MOL     -0.530798
     42 C13         3.6450   -1.8240    0.6550 c3        1 MOL      0.313489
     43 C14         3.8940   -0.6320   -0.2560 c         1 MOL      0.170260
     44 O6          3.8270   -0.6560   -1.4900 o         1 MOL     -0.348964
     45 C15         2.4310   -1.6310    1.6600 c3        1 MOL     -0.515530
     46 C16         1.1470   -1.9530    0.8360 c         1 MOL      0.652719
     47 O7          0.8320   -1.2590   -0.1710 o         1 MOL     -0.627757
     48 O8          0.4490   -2.9890    1.1890 o         1 MOL     -0.627757
     49 H21         2.7980   -3.3390   -0.6400 hn        1 MOL      0.388815
     50 H22         4.5240   -1.8660    1.3100 h1        1 MOL      0.067080
     51 H23         2.2880   -0.6750    2.1610 hc        1 MOL      0.131915
     52 H24         2.4730   -2.3710    2.4560 hc        1 MOL      0.131915
     53 N5          4.2070    0.5440    0.2630 n         1 MOL     -0.352362
     54 C17         4.4020    1.7800   -0.4420 c3        1 MOL      0.070242
     55 C18         3.0570    2.4610   -0.9010 c         1 MOL      0.283173
     56 O9          1.9760    1.9450   -0.7210 o         1 MOL     -0.371237
     57 H25         4.4170    0.5670    1.2580 hn        1 MOL      0.268417
     58 H26         5.0210    1.7190   -1.3340 h1        1 MOL      0.039182
     59 H27         4.9000    2.4960    0.2080 h1        1 MOL      0.039182
     60 N6          3.2630    3.4990   -1.7040 n         1 MOL     -0.273177
     61 C19         2.2730    4.4060   -2.2800 c3        1 MOL      0.198406
     62 C20         2.7020    5.8490   -2.0750 c         1 MOL      0.364061
     63 O10         3.8760    6.2180   -2.0730 o         1 MOL     -0.498348
     64 C21         1.9470    4.1030   -3.7580 c3        1 MOL     -0.158768
     65 C22         1.1570    2.8380   -4.0050 c         1 MOL      0.585980
     66 O11         0.3910    2.4210   -3.1270 o         1 MOL     -0.667266
     67 O12         1.2580    2.2800   -5.1310 o         1 MOL     -0.667266
     68 H28         4.2180    3.8250   -1.7980 hn        1 MOL      0.253483
     69 H29         1.3370    4.2000   -1.7570 h1        1 MOL      0.018766
     70 H30         2.8830    4.0110   -4.3220 hc        1 MOL      0.067894
     71 H31         1.3230    4.8570   -4.2260 hc        1 MOL      0.067894
     72 N7          1.7940    6.8180   -1.8730 n         1 MOL     -0.404696
     73 C23         0.3080    6.7540   -2.1260 c3        1 MOL     -0.034081
     74 C24        -0.5670    6.3570   -0.8770 c         1 MOL      0.610521
     75 O13        -0.0560    6.4930    0.2400 o         1 MOL     -0.518711
     76 H32         2.1240    7.7150   -1.5480 hn        1 MOL      0.306406
     77 H33         0.1780    6.0890   -2.9710 h1        1 MOL      0.059259
     78 H34        -0.1230    7.6860   -2.4880 h1        1 MOL      0.059259
     79 N8         -1.7580    5.8120   -1.0330 n         1 MOL     -0.596191
     80 C25        -2.3360    5.0060    0.1340 c3        1 MOL     -0.088204
     81 C26        -1.3250    3.9290    0.6620 c         1 MOL      0.675080
     82 O14        -0.7140    3.2450   -0.0860 o         1 MOL     -0.621250
     83 C27        -3.6850    4.3760   -0.3270 c3        1 MOL      0.111129
     84 C28        -4.4380    3.8420    0.8360 c3        1 MOL     -0.044363
     85 O15        -3.6220    3.3570   -1.3370 oh        1 MOL     -0.560476
     86 H35        -2.2920    5.7570   -1.8870 hn        1 MOL      0.327713
     87 H36        -2.4630    5.8400    0.8170 h1        1 MOL      0.130615
     88 H37        -4.2550    5.2390   -0.6570 h1        1 MOL      0.072580
     89 H38        -3.4310    3.7730   -2.1700 ho        1 MOL      0.414326
     90 H39        -4.4850    4.5990    1.6180 hc        1 MOL      0.026017
     91 H40        -5.4670    3.5420    0.6380 hc        1 MOL      0.026017
     92 H41        -3.9210    2.9440    1.1490 hc        1 MOL      0.026017
     93 N9         -1.2790    3.8240    2.0180 n         1 MOL     -0.485484
     94 C29        -0.6520    2.7710    2.7600 c3        1 MOL      0.411885
     95 C30        -1.0710    1.3580    2.2670 c         1 MOL      0.012501
     96 O16        -0.5310    0.7610    1.3440 o         1 MOL     -0.449916
     97 C31         0.8510    2.8800    2.7970 c3        1 MOL      0.148599
     98 C32         1.1570    4.3840    3.1910 c3        1 MOL     -0.299633
     99 C33         1.5690    1.8780    3.7020 c3        1 MOL     -0.277590
    100 C34         0.6640    4.8660    4.5660 c3        1 MOL     -0.047022
    101 H42        -1.8570    4.4420    2.5520 hn        1 MOL      0.235988
    102 H43        -0.9910    2.9010    3.7910 h1        1 MOL     -0.005828
    103 H44         1.2010    2.7160    1.7830 hc        1 MOL      0.011045
    104 H45         0.9320    5.1020    2.4080 hc        1 MOL      0.110505
    105 H46         2.2330    4.4460    3.3270 hc        1 MOL      0.110505
    106 H47         1.1160    0.8900    3.6050 hc        1 MOL      0.075490
    107 H48         2.6520    1.9020    3.5790 hc        1 MOL      0.075490
    108 H49         1.2700    2.0860    4.7280 hc        1 MOL      0.075490
    109 H50        -0.4140    4.7110    4.6800 hc        1 MOL      0.012331
    110 H51         1.0860    4.2400    5.3510 hc        1 MOL      0.012331
    111 H52         0.7810    5.9380    4.7400 hc        1 MOL      0.012331
    112 N10        -2.0760    0.7690    2.9860 n         1 MOL     -0.075574
    113 C35        -2.6490   -0.6430    2.9200 c3        1 MOL     -0.240399
    114 C36        -4.1830   -0.7130    3.2050 c         1 MOL      0.568485
    115 O17        -4.6490   -1.7380    3.6100 o         1 MOL     -0.536590
    116 C37        -1.8360   -1.6130    3.8810 c3        1 MOL      0.345291
    117 C38        -1.9900   -1.1580    5.3330 c3        1 MOL     -0.237285
    118 O18        -0.4880   -1.5210    3.5390 oh        1 MOL     -0.501041
    119 H53        -2.5280    1.4110    3.6100 hn        1 MOL      0.142777
    120 H54        -2.4870   -0.9300    1.8850 h1        1 MOL      0.156803
    121 H55        -2.1700   -2.6510    3.8480 h1        1 MOL      0.035653
    122 H56        -0.3870   -2.0450    2.7310 ho        1 MOL      0.296600
    123 H57        -1.4240   -0.2470    5.5330 hc        1 MOL      0.054489
    124 H58        -3.0030   -0.9970    5.6870 hc        1 MOL      0.054489
    125 H59        -1.5380   -1.9210    5.9680 hc        1 MOL      0.054489
    126 N11        -4.9170    0.3570    2.9180 n         1 MOL     -0.353772
    127 C39        -6.4030    0.3450    2.8800 c3        1 MOL     -0.088338
    128 C40        -6.7740   -0.1930    1.5330 c         1 MOL      0.619947
    129 O19        -7.1540    0.5910    0.6030 o         1 MOL     -0.535570
    130 C41        -6.9530    1.7300    3.2650 c3        1 MOL      0.384157
    131 C42        -8.4760    1.8040    3.3260 c3        1 MOL     -0.263561
    132 O20        -6.5040    2.1210    4.5530 oh        1 MOL     -0.604115
    133 H60        -4.4050    1.1320    2.5180 hn        1 MOL      0.225648
    134 H61        -6.7400   -0.3360    3.6600 h1        1 MOL      0.104494
    135 H62        -6.5920    2.4290    2.5060 h1        1 MOL     -0.031797
    136 H63        -5.6200    2.4800    4.5600 ho        1 MOL      0.381833
    137 H64        -8.8780    1.0810    4.0370 hc        1 MOL      0.073122
    138 H65        -8.8330    2.7820    3.6700 hc        1 MOL      0.073122
    139 H66        -9.0240    1.5340    2.4210 hc        1 MOL      0.073122
    140 N12        -6.7270   -1.5080    1.3360 n         1 MOL     -0.729061
    141 C43        -6.5680   -2.2810    0.1210 c3        1 MOL      0.413295
    142 C44        -5.1680   -2.1350   -0.4600 c         1 MOL      0.349136
    143 O21        -4.4680   -1.1720   -0.1650 o         1 MOL     -0.411621
    144 C45        -7.7540   -2.1420   -0.7620 c3        1 MOL     -0.252816
    145 C46        -9.0410   -2.6320   -0.1010 c3        1 MOL     -0.156201
    146 C47       -10.0750   -3.2120   -1.0260 c3        1 MOL      0.060257
    147 C48       -10.8260   -2.1950   -1.8160 c3        1 MOL     -0.029246
    148 N13       -11.9060   -1.6280   -0.9670 n4        1 MOL     -0.207452
    149 H67        -6.6300   -2.1180    2.1290 hn        1 MOL      0.337172
    150 H68        -6.6200   -3.3240    0.4200 h1        1 MOL      0.014213
    151 H69        -7.6200   -2.7870   -1.6240 hc        1 MOL      0.092208
    152 H70        -7.7830   -1.1010   -1.0890 hc        1 MOL      0.092208
    153 H71        -9.4970   -1.8280    0.4780 hc        1 MOL      0.066370
    154 H72        -8.8090   -3.5000    0.5200 hc        1 MOL      0.066370
    155 H73       -10.8040   -3.8730   -0.5540 hc        1 MOL      0.026588
    156 H74        -9.5650   -3.8290   -1.7680 hc        1 MOL      0.026588
    157 H75       -11.3220   -2.6920   -2.6490 hx        1 MOL      0.105237
    158 H76       -10.1970   -1.3530   -2.1020 hx        1 MOL      0.105237
    159 H77       -12.5060   -2.3710   -0.6380 hn        1 MOL      0.225775
    160 H78       -11.7140   -1.0710   -0.1430 hn        1 MOL      0.225775
    161 H79       -12.3280   -0.8860   -1.5030 hn        1 MOL      0.225775
    162 N14        -4.8230   -3.0800   -1.3220 n         1 MOL     -0.474763
    163 C49        -3.6230   -2.9210   -2.1980 c3        1 MOL      0.143813
    164 C50        -2.2960   -2.6170   -1.4540 c         1 MOL      0.340178
    165 O22        -1.6240   -1.5870   -1.7160 o         1 MOL     -0.574592
    166 C51        -3.5500   -4.2400   -3.0970 c3        1 MOL      0.020238
    167 C52        -4.7770   -4.3470   -4.1000 c3        1 MOL     -0.205955
    168 C53        -4.7750   -5.6210   -4.8940 c         1 MOL      0.712865
    169 O23        -4.7380   -6.8000   -4.4550 o         1 MOL     -0.650447
    170 O24        -4.8680   -5.4230   -6.1080 o         1 MOL     -0.650447
    171 H80        -5.4760   -3.8390   -1.3810 hn        1 MOL      0.316471
    172 H81        -3.7970   -2.1000   -2.8970 h1        1 MOL      0.064557
    173 H82        -3.5230   -5.0870   -2.4120 hc        1 MOL      0.030944
    174 H83        -2.6010   -4.2350   -3.6370 hc        1 MOL      0.030944
    175 H84        -4.8770   -3.4700   -4.7300 hc        1 MOL      0.020359
    176 H85        -5.6990   -4.3110   -3.5180 hc        1 MOL      0.020359
    177 N15        -1.9180   -3.3140   -0.4450 n         1 MOL     -0.125827
    178 C54        -2.3850   -4.5870    0.0890 c3        1 MOL     -0.058531
    179 H86        -1.9140   -5.4040   -0.4580 h1        1 MOL      0.041142
    180 H87        -2.1220   -4.6570    1.1440 h1        1 MOL      0.041142
    181 H88        -3.4680   -4.6520   -0.0220 h1        1 MOL      0.041142
    182 H89        -1.0920   -2.8870   -0.0460 hn        1 MOL      0.244746
    183 Ca1        -0.4470    0.7710   -1.2910 Ca        1 MOL      1.792326
    184 O25        -3.0450    0.8800   -0.4080 oh        1 MOL     -0.887295
    185 H90        -3.5790    1.4650   -0.9370 ho        1 MOL      0.420042
    186 H91        -3.5160    0.0480   -0.4140 ho        1 MOL      0.420042
    187 O26        -2.1980    0.6400   -3.2500 oh        1 MOL     -0.887295
    188 H92        -2.8430    1.0780   -3.8030 ho        1 MOL      0.420042
    189 H93        -1.8680   -0.0870   -3.7900 ho        1 MOL      0.420042
    190 O27         1.4230   -0.3020   -3.0230 oh        1 MOL     -0.887295
    191 H94         2.3540   -0.5300   -3.0320 ho        1 MOL      0.420042
    192 H95         1.3850    0.5730   -3.3950 ho        1 MOL      0.420042
@<TRIPOS>BOND
     1    1    2 1   
     2    1    4 1   
     3    1    5 1   
     4    1    6 1   
     5    2    3 2   
     6    2    7 1   
     7    7    8 1   
     8    7   15 1   
     9    8    9 1   
    10    8   11 1   
    11    8   16 1   
    12    9   10 2   
    13    9   19 1   
    14   11   12 1   
    15   11   17 1   
    16   11   18 1   
    17   12   13 1   
    18   12   14 1   
    19   19   20 1   
    20   19   28 1   
    21   20   21 1   
    22   20   23 1   
    23   20   29 1   
    24   21   22 2   
    25   21   41 1   
    26   23   24 1   
    27   23   30 1   
    28   23   31 1   
    29   24   25 1   
    30   24   32 1   
    31   24   33 1   
    32   25   26 1   
    33   25   34 1   
    34   25   35 1   
    35   26   27 1   
    36   26   36 1   
    37   26   37 1   
    38   27   38 1   
    39   27   39 1   
    40   27   40 1   
    41   41   42 1   
    42   41   49 1   
    43   42   43 1   
    44   42   45 1   
    45   42   50 1   
    46   43   44 2   
    47   43   53 1   
    48   45   46 1   
    49   45   51 1   
    50   45   52 1   
    51   46   47 1   
    52   46   48 1   
    53   53   54 1   
    54   53   57 1   
    55   54   55 1   
    56   54   58 1   
    57   54   59 1   
    58   55   56 2   
    59   55   60 1   
    60   60   61 1   
    61   60   68 1   
    62   61   62 1   
    63   61   64 1   
    64   61   69 1   
    65   62   63 2   
    66   62   72 1   
    67   64   65 1   
    68   64   70 1   
    69   64   71 1   
    70   65   66 1   
    71   65   67 1   
    72   72   73 1   
    73   72   76 1   
    74   73   74 1   
    75   73   77 1   
    76   73   78 1   
    77   74   75 2   
    78   74   79 1   
    79   79   80 1   
    80   79   86 1   
    81   80   81 1   
    82   80   83 1   
    83   80   87 1   
    84   81   82 2   
    85   81   93 1   
    86   83   84 1   
    87   83   85 1   
    88   83   88 1   
    89   84   90 1   
    90   84   91 1   
    91   84   92 1   
    92   85   89 1   
    93   93   94 1   
    94   93  101 1   
    95   94   95 1   
    96   94   97 1   
    97   94  102 1   
    98   95   96 2   
    99   95  112 1   
   100   97   98 1   
   101   97   99 1   
   102   97  103 1   
   103   98  100 1   
   104   98  104 1   
   105   98  105 1   
   106   99  106 1   
   107   99  107 1   
   108   99  108 1   
   109  100  109 1   
   110  100  110 1   
   111  100  111 1   
   112  112  113 1   
   113  112  119 1   
   114  113  114 1   
   115  113  116 1   
   116  113  120 1   
   117  114  115 2   
   118  114  126 1   
   119  116  117 1   
   120  116  118 1   
   121  116  121 1   
   122  117  123 1   
   123  117  124 1   
   124  117  125 1   
   125  118  122 1   
   126  126  127 1   
   127  126  133 1   
   128  127  128 1   
   129  127  130 1   
   130  127  134 1   
   131  128  129 2   
   132  128  140 1   
   133  130  131 1   
   134  130  132 1   
   135  130  135 1   
   136  131  137 1   
   137  131  138 1   
   138  131  139 1   
   139  132  136 1   
   140  140  141 1   
   141  140  149 1   
   142  141  142 1   
   143  141  144 1   
   144  141  150 1   
   145  142  143 2   
   146  142  162 1   
   147  144  145 1   
   148  144  151 1   
   149  144  152 1   
   150  145  146 1   
   151  145  153 1   
   152  145  154 1   
   153  146  147 1   
   154  146  155 1   
   155  146  156 1   
   156  147  148 1   
   157  147  157 1   
   158  147  158 1   
   159  148  159 1   
   160  148  160 1   
   161  148  161 1   
   162  162  163 1   
   163  162  171 1   
   164  163  164 1   
   165  163  166 1   
   166  163  172 1   
   167  164  165 2   
   168  164  177 1   
   169  166  167 1   
   170  166  173 1   
   171  166  174 1   
   172  167  168 1   
   173  167  175 1   
   174  167  176 1   
   175  168  169 1   
   176  168  170 1   
   177  177  178 1   
   178  177  182 1   
   179  178  179 1   
   180  178  180 1   
   181  178  181 1   
   182  184  185 1   
   183  184  186 1   
   184  187  188 1   
   185  187  189 1   
   186  190  191 1   
   187  190  192 1   
@<TRIPOS>SUBSTRUCTURE
     1 MOL         1 TEMP              0 ****  ****    0 ROOT
