@<TRIPOS>MOLECULE
MOL
  182   178     1     0     0
SMALL
resp


@<TRIPOS>ATOM
      1 C1         -0.1830   -2.4180    6.7080 c3        1 MOL     -0.457998
      2 C2          0.0610   -2.3830    5.1700 c         1 MOL      0.748078
      3 O1         -0.8160   -1.8530    4.4800 o         1 MOL     -0.635850
      4 H1          0.7750   -2.4380    7.2270 hc        1 MOL      0.130102
      5 H2         -0.7400   -1.5310    7.0080 hc        1 MOL      0.130102
      6 H3         -0.7540   -3.3100    6.9660 hc        1 MOL      0.130102
      7 N1          1.2060   -2.7800    4.6220 n         1 MOL     -0.602397
      8 C3          1.5610   -2.6710    3.2320 c3        1 MOL     -0.019745
      9 C4          1.5220   -4.1430    2.6230 c         1 MOL      0.491697
     10 O2          1.7060   -5.1910    3.3180 o         1 MOL     -0.511372
     11 C5          2.9440   -1.9560    3.0710 c3        1 MOL     -0.178886
     12 C6          3.1840   -1.4060    1.6260 c         1 MOL      0.577160
     13 O3          4.0920   -0.5610    1.3080 o         1 MOL     -0.731235
     14 O4          2.5540   -1.8650    0.6600 o         1 MOL     -0.731235
     15 H4          2.0080   -3.1010    5.1500 hn        1 MOL      0.318964
     16 H5          0.7240   -2.0930    2.8340 h1        1 MOL      0.230959
     17 H6          3.7670   -2.6330    3.2900 hc        1 MOL      0.108364
     18 H7          3.1500   -1.2130    3.8430 hc        1 MOL      0.108364
     19 N2          1.2880   -4.2230    1.2810 n         1 MOL     -0.376832
     20 C7          1.4870   -5.4890    0.5100 c3        1 MOL     -0.006153
     21 C8          2.7510   -5.6330   -0.3370 c         1 MOL      0.546288
     22 O5          3.1590   -6.7550   -0.5980 o         1 MOL     -0.545267
     23 C9          0.2430   -5.7810   -0.3940 c3        1 MOL     -0.075277
     24 C10         0.0650   -4.7850   -1.5570 c3        1 MOL      0.120025
     25 C11        -1.0170   -5.1130   -2.5290 c3        1 MOL     -0.195590
     26 C12        -2.3250   -5.1820   -1.8400 c3        1 MOL      0.069272
     27 N3         -3.3750   -5.1920   -2.8990 n4        1 MOL     -0.296818
     28 H8          1.1020   -3.4200    0.7050 hn        1 MOL      0.277424
     29 H9          1.6300   -6.2660    1.2560 h1        1 MOL      0.111907
     30 H10        -0.6690   -5.7330    0.1970 hc        1 MOL      0.022011
     31 H11         0.3650   -6.7800   -0.8270 hc        1 MOL      0.022011
     32 H12         0.9890   -4.8140   -2.1450 hc        1 MOL      0.017522
     33 H13        -0.1030   -3.7660   -1.2090 hc        1 MOL      0.017522
     34 H14        -0.7440   -6.0340   -3.0390 hc        1 MOL      0.074227
     35 H15        -0.9340   -4.3130   -3.2560 hc        1 MOL      0.074227
     36 H16        -2.4700   -4.3710   -1.1240 hx        1 MOL      0.086858
     37 H17        -2.4140   -6.0670   -1.2090 hx        1 MOL      0.086858
     38 H18        -3.3810   -5.9940   -3.5120 hn        1 MOL      0.257413
     39 H19        -4.3400   -5.0950   -2.6220 hn        1 MOL      0.257413
     40 H20        -3.1310   -4.4630   -3.5490 hn        1 MOL      0.257413
     41 N4          3.4340   -4.5210   -0.6420 n         1 MOL     -0.352578
     42 C13         4.6060   -4.4350   -1.5230 c3        1 MOL      0.001998
     43 C14         5.8820   -3.9780   -0.7750 c         1 MOL      0.530466
     44 O6          6.9600   -4.3220   -1.3490 o         1 MOL     -0.577204
     45 C15         4.3180   -3.6440   -2.7960 c3        1 MOL     -0.176224
     46 C16         3.8660   -2.2520   -2.4130 c         1 MOL      0.837259
     47 O7          2.6280   -1.9790   -2.5730 o         1 MOL     -0.871705
     48 O8          4.6600   -1.5190   -1.8370 o         1 MOL     -0.871705
     49 H21         3.0430   -3.6830   -0.2300 hn        1 MOL      0.179173
     50 H22         4.8770   -5.4260   -1.8620 h1        1 MOL      0.104606
     51 H23         3.6010   -4.1360   -3.4570 hc        1 MOL      0.055602
     52 H24         5.1770   -3.5510   -3.4600 hc        1 MOL      0.055602
     53 N5          5.7960   -3.2970    0.3010 n         1 MOL     -0.343437
     54 C17         6.9510   -2.8080    1.0010 c3        1 MOL     -0.073220
     55 C18         7.4610   -1.4090    0.6170 c         1 MOL      0.400093
     56 O9          8.4540   -0.9730    1.2580 o         1 MOL     -0.544947
     57 H25         4.8960   -2.9300    0.5710 hn        1 MOL      0.245498
     58 H26         7.8210   -3.4490    0.9170 h1        1 MOL      0.104931
     59 H27         6.7750   -2.7700    2.0790 h1        1 MOL      0.104931
     60 N6          6.8270   -0.6720   -0.2960 n         1 MOL     -0.257814
     61 C19         7.2670    0.6220   -0.9190 c3        1 MOL      0.011305
     62 C20         6.2000    1.6790   -0.7570 c         1 MOL      0.470133
     63 O10         4.9890    1.4040   -0.8240 o         1 MOL     -0.535844
     64 C21         7.6680    0.3710   -2.3160 c3        1 MOL     -0.033697
     65 C22         8.6930   -0.7150   -2.5820 c         1 MOL      0.708888
     66 N7          8.2430   -1.7970   -3.1220 n         1 MOL     -0.884221
     67 O11         9.8500   -0.3850   -2.3790 o         1 MOL     -0.567459
     68 H28         5.9970   -1.1590   -0.6220 hn        1 MOL      0.508022
     69 H29         8.1440    1.0460   -0.4350 h1        1 MOL      0.051607
     70 H30         7.9800    1.3120   -2.7590 hc        1 MOL     -0.026562
     71 H31         6.8100    0.0080   -2.8720 hc        1 MOL     -0.026562
     72 H32         7.2520   -1.9850   -3.1900 hn        1 MOL      0.405623
     73 H33         8.8710   -2.4930   -3.5050 hn        1 MOL      0.405623
     74 N8          6.5660    2.9570   -0.7050 n         1 MOL     -0.268434
     75 C23         5.6670    4.1140   -0.8110 c3        1 MOL     -0.302616
     76 C24         4.6900    4.3580    0.3390 c         1 MOL      0.849795
     77 O12         5.0490    4.3100    1.5180 o         1 MOL     -0.560320
     78 H34         7.5150    3.1810   -0.4650 hn        1 MOL      0.302009
     79 H35         5.0310    3.9340   -1.6760 h1        1 MOL      0.114178
     80 H36         6.2840    5.0190   -0.8230 h1        1 MOL      0.114178
     81 N9          3.4560    4.6940   -0.0650 n         1 MOL     -0.869831
     82 C25         2.3180    4.7580    0.8090 c3        1 MOL      0.610404
     83 C26         1.8450    3.3340    1.1970 c         1 MOL      0.273132
     84 O13         2.3460    2.3690    0.5610 o         1 MOL     -0.477466
     85 C27         1.2580    5.5680    0.0300 c3        1 MOL     -0.122080
     86 C28         1.5860    6.9830   -0.3890 ca        1 MOL      0.024426
     87 C29         1.5120    7.3390   -1.7560 ca        1 MOL     -0.143202
     88 C30         2.0830    8.0050    0.5340 ca        1 MOL     -0.143202
     89 C31         1.8740    8.6370   -2.2300 ca        1 MOL     -0.268283
     90 C32         2.4750    9.2760    0.0740 ca        1 MOL     -0.268283
     91 C33         2.3460    9.6130   -1.3230 ca        1 MOL      0.316483
     92 O14         2.7880   10.8030   -1.8120 oh        1 MOL     -0.412652
     93 H37         3.2780    4.7720   -1.0570 hn        1 MOL      0.348280
     94 H38         2.5360    5.2680    1.7410 h1        1 MOL     -0.011623
     95 H39         0.3600    5.6410    0.6450 hc        1 MOL      0.013848
     96 H40         0.9200    5.0330   -0.8570 hc        1 MOL      0.013848
     97 H41         1.2080    6.6380   -2.5330 ha        1 MOL      0.127122
     98 H42         2.2310    7.7570    1.5790 ha        1 MOL      0.127122
     99 H43         1.6980    8.8850   -3.2630 ha        1 MOL      0.167947
    100 H44         2.9600   10.0400    0.6670 ha        1 MOL      0.167947
    101 H45         2.5670   10.8040   -2.7440 ho        1 MOL      0.320965
    102 N10         0.9980    3.1600    2.2020 n         1 MOL     -0.494999
    103 C34         0.3080    1.9450    2.6420 c3        1 MOL      0.050236
    104 C35        -0.2120    0.9170    1.5870 c         1 MOL      0.605815
    105 O15         0.5440    0.2760    0.8690 o         1 MOL     -0.522208
    106 C36         0.9850    1.2360    3.7810 c3        1 MOL      0.224588
    107 C37         0.1010    1.2970    5.0450 c3        1 MOL      0.132969
    108 C38         2.4850    1.5830    4.0860 c3        1 MOL     -0.098062
    109 C39         0.0030    2.7030    5.7730 c3        1 MOL     -0.449397
    110 H46         0.6680    4.0300    2.5750 hn        1 MOL      0.277032
    111 H47        -0.6170    2.3890    3.0100 h1        1 MOL      0.054821
    112 H48         0.8530    0.1590    3.6580 hc        1 MOL     -0.108498
    113 H49         0.4490    0.5720    5.7760 hc        1 MOL      0.009228
    114 H50        -0.9310    1.0040    4.8500 hc        1 MOL      0.009228
    115 H51         2.8780    0.8390    4.7810 hc        1 MOL      0.031821
    116 H52         3.0720    1.4830    3.1720 hc        1 MOL      0.031821
    117 H53         2.5590    2.5340    4.6190 hc        1 MOL      0.031821
    118 H54         0.8970    2.8800    6.3750 hc        1 MOL      0.109724
    119 H55        -0.1370    3.4450    4.9900 hc        1 MOL      0.109724
    120 H56        -0.9160    2.6900    6.3640 hc        1 MOL      0.109724
    121 N11        -1.5010    0.6730    1.6220 n         1 MOL     -0.579944
    122 C40        -2.1070   -0.2390    0.7250 c3        1 MOL      0.001769
    123 C41        -3.6130    0.1590    0.4840 c         1 MOL      0.619348
    124 O16        -4.3430    0.4460    1.4110 o         1 MOL     -0.517307
    125 C42        -2.2170   -1.6490    1.3350 c3        1 MOL      0.324531
    126 O17        -2.6070   -2.6010    0.2940 oh        1 MOL     -0.757035
    127 H57        -1.9990    1.1290    2.3690 hn        1 MOL      0.302408
    128 H58        -1.5890   -0.4080   -0.2170 h1        1 MOL      0.111132
    129 H59        -3.0010   -1.6740    2.0870 h1        1 MOL      0.028513
    130 H60        -1.2600   -1.9490    1.7640 h1        1 MOL      0.028513
    131 H61        -3.1640   -3.2870    0.6570 ho        1 MOL      0.408418
    132 N12        -4.0160    0.1230   -0.7680 n         1 MOL     -0.568265
    133 C43        -5.4060    0.2160   -1.3270 c3        1 MOL      0.267262
    134 C44        -5.6920   -0.6570   -2.5340 c         1 MOL      0.638056
    135 O18        -4.8440   -0.7120   -3.3970 o         1 MOL     -0.575380
    136 C45        -5.7490    1.6960   -1.5260 c3        1 MOL     -0.059632
    137 H62        -3.3330   -0.1140   -1.4790 hn        1 MOL      0.224028
    138 H63        -6.1050   -0.1840   -0.5770 h1        1 MOL      0.007354
    139 H64        -6.6670    1.7940   -2.1070 hc        1 MOL      0.017670
    140 H65        -5.8290    2.2370   -0.5880 hc        1 MOL      0.017670
    141 H66        -4.9860    2.1410   -2.1610 hc        1 MOL      0.017670
    142 N13        -6.8080   -1.3720   -2.6570 n         1 MOL     -0.699609
    143 C46        -8.0680   -1.2030   -2.0200 c3        1 MOL      0.223037
    144 C47        -8.9070   -0.0920   -2.6680 c         1 MOL      0.723581
    145 O19        -8.8250    0.1560   -3.8620 o         1 MOL     -0.576908
    146 C48        -8.7690   -2.5820   -2.1070 c3        1 MOL     -0.415590
    147 H67        -6.8230   -1.9890   -3.4490 hn        1 MOL      0.351105
    148 H68        -7.9540   -1.0860   -0.9370 h1        1 MOL      0.076467
    149 H69        -8.1160   -3.4150   -1.8240 hc        1 MOL      0.123981
    150 H70        -9.6440   -2.5060   -1.4630 hc        1 MOL      0.123981
    151 H71        -9.1700   -2.8610   -3.0770 hc        1 MOL      0.123981
    152 N14        -9.7300    0.6530   -1.9170 n         1 MOL     -0.699961
    153 C49        -9.9980    0.4300   -0.4520 c3        1 MOL     -0.139491
    154 C50        -9.4930    1.5560    0.4490 c         1 MOL      0.501629
    155 O20        -9.1380    1.3170    1.5530 o         1 MOL     -0.505124
    156 C51       -11.5020    0.4210   -0.3490 c3        1 MOL      0.282264
    157 C52       -12.0590   -0.2780    0.8570 c3        1 MOL     -0.189455
    158 C53       -13.5580   -0.5130    0.7960 c         1 MOL      0.660175
    159 O21       -14.2380    0.5460    0.8810 o         1 MOL     -0.655721
    160 O22       -14.0330   -1.6540    0.7250 o         1 MOL     -0.655721
    161 H72       -10.2760    1.4200   -2.2910 hn        1 MOL      0.365220
    162 H73        -9.6230   -0.5310   -0.0910 h1        1 MOL      0.097349
    163 H74       -11.8880   -0.0760   -1.2470 hc        1 MOL     -0.049624
    164 H75       -11.7670    1.4820   -0.3540 hc        1 MOL     -0.049624
    165 H76       -11.8170    0.2980    1.7480 hc        1 MOL      0.027379
    166 H77       -11.5250   -1.2150    0.9260 hc        1 MOL      0.027379
    167 N15        -9.4120    2.8150   -0.0940 n         1 MOL     -0.205414
    168 C54        -8.7220    3.9570    0.4820 c3        1 MOL     -0.356749
    169 H78        -8.0260    3.6130    1.2460 h1        1 MOL      0.142207
    170 H79        -8.1720    4.4820   -0.3000 h1        1 MOL      0.142207
    171 H80        -9.4490    4.6340    0.9310 h1        1 MOL      0.142207
    172 H81        -9.6730    2.8580   -1.0660 hn        1 MOL      0.217961
    173 Ca1         2.6310    0.2600   -1.0600 Ca        1 MOL      1.761478
    174 O23         0.3150   -0.7760   -1.7080 oh        1 MOL     -0.833222
    175 H82        -0.5540   -0.8690   -2.1030 ho        1 MOL      0.420566
    176 H83         0.7910   -1.5630   -1.9950 ho        1 MOL      0.420566
    177 O24         0.9590    2.1340   -2.2980 oh        1 MOL     -0.833222
    178 H84         0.0860    2.0410   -1.9190 ho        1 MOL      0.420566
    179 H85         0.8400    2.7240   -3.0390 ho        1 MOL      0.420566
    180 O25         3.5670    0.5990   -3.5490 oh        1 MOL     -0.833222
    181 H86         3.3140    0.8600   -4.4320 ho        1 MOL      0.420566
    182 H87         4.3200    0.0280   -3.6730 ho        1 MOL      0.420566
@<TRIPOS>BOND
     1    1    2 1   
     2    1    4 1   
     3    1    5 1   
     4    1    6 1   
     5    2    3 2   
     6    2    7 1   
     7    7    8 1   
     8    7   15 1   
     9    8    9 1   
    10    8   11 1   
    11    8   16 1   
    12    9   10 2   
    13    9   19 1   
    14   11   12 1   
    15   11   17 1   
    16   11   18 1   
    17   12   13 1   
    18   12   14 1   
    19   19   20 1   
    20   19   28 1   
    21   20   21 1   
    22   20   23 1   
    23   20   29 1   
    24   21   22 2   
    25   21   41 1   
    26   23   24 1   
    27   23   30 1   
    28   23   31 1   
    29   24   25 1   
    30   24   32 1   
    31   24   33 1   
    32   25   26 1   
    33   25   34 1   
    34   25   35 1   
    35   26   27 1   
    36   26   36 1   
    37   26   37 1   
    38   27   38 1   
    39   27   39 1   
    40   27   40 1   
    41   41   42 1   
    42   41   49 1   
    43   42   43 1   
    44   42   45 1   
    45   42   50 1   
    46   43   44 2   
    47   43   53 1   
    48   45   46 1   
    49   45   51 1   
    50   45   52 1   
    51   46   47 1   
    52   46   48 1   
    53   53   54 1   
    54   53   57 1   
    55   54   55 1   
    56   54   58 1   
    57   54   59 1   
    58   55   56 2   
    59   55   60 1   
    60   60   61 1   
    61   60   68 1   
    62   61   62 1   
    63   61   64 1   
    64   61   69 1   
    65   62   63 2   
    66   62   74 1   
    67   64   65 1   
    68   64   70 1   
    69   64   71 1   
    70   65   66 1   
    71   65   67 2   
    72   66   72 1   
    73   66   73 1   
    74   74   75 1   
    75   74   78 1   
    76   75   76 1   
    77   75   79 1   
    78   75   80 1   
    79   76   77 2   
    80   76   81 1   
    81   81   82 1   
    82   81   93 1   
    83   82   83 1   
    84   82   85 1   
    85   82   94 1   
    86   83   84 2   
    87   83  102 1   
    88   85   86 1   
    89   85   95 1   
    90   85   96 1   
    91   86   87 ar  
    92   86   88 ar  
    93   87   89 ar  
    94   87   97 1   
    95   88   90 ar  
    96   88   98 1   
    97   89   91 ar  
    98   89   99 1   
    99   90   91 ar  
   100   90  100 1   
   101   91   92 1   
   102   92  101 1   
   103  102  103 1   
   104  102  110 1   
   105  103  104 1   
   106  103  106 1   
   107  103  111 1   
   108  104  105 2   
   109  104  121 1   
   110  106  107 1   
   111  106  108 1   
   112  106  112 1   
   113  107  109 1   
   114  107  113 1   
   115  107  114 1   
   116  108  115 1   
   117  108  116 1   
   118  108  117 1   
   119  109  118 1   
   120  109  119 1   
   121  109  120 1   
   122  121  122 1   
   123  121  127 1   
   124  122  123 1   
   125  122  125 1   
   126  122  128 1   
   127  123  124 2   
   128  123  132 1   
   129  125  126 1   
   130  125  129 1   
   131  125  130 1   
   132  126  131 1   
   133  132  133 1   
   134  132  137 1   
   135  133  134 1   
   136  133  136 1   
   137  133  138 1   
   138  134  135 2   
   139  134  142 1   
   140  136  139 1   
   141  136  140 1   
   142  136  141 1   
   143  142  143 1   
   144  142  147 1   
   145  143  144 1   
   146  143  146 1   
   147  143  148 1   
   148  144  145 2   
   149  144  152 1   
   150  146  149 1   
   151  146  150 1   
   152  146  151 1   
   153  152  153 1   
   154  152  161 1   
   155  153  154 1   
   156  153  156 1   
   157  153  162 1   
   158  154  155 2   
   159  154  167 1   
   160  156  157 1   
   161  156  163 1   
   162  156  164 1   
   163  157  158 1   
   164  157  165 1   
   165  157  166 1   
   166  158  159 1   
   167  158  160 1   
   168  167  168 1   
   169  167  172 1   
   170  168  169 1   
   171  168  170 1   
   172  168  171 1   
   173  174  175 1   
   174  174  176 1   
   175  177  178 1   
   176  177  179 1   
   177  180  181 1   
   178  180  182 1   
@<TRIPOS>SUBSTRUCTURE
     1 MOL         1 TEMP              0 ****  ****    0 ROOT
