@<TRIPOS>MOLECULE
MOL
  192   187     1     0     0
SMALL
resp


@<TRIPOS>ATOM
      1 C1          4.5600   -1.9450   -2.5340 c3        1 MOL     -0.116457
      2 C2          3.6540   -2.4830   -1.4270 c         1 MOL      0.613788
      3 O1          2.8540   -1.7140   -0.9100 o         1 MOL     -0.497238
      4 H1          4.1500   -2.2250   -3.5060 hc        1 MOL      0.018621
      5 H2          4.6150   -0.8590   -2.4630 hc        1 MOL      0.018621
      6 H3          5.5590   -2.3690   -2.4260 hc        1 MOL      0.018621
      7 N1          3.6770   -3.7730   -1.1630 n         1 MOL     -0.669383
      8 C3          2.8480   -4.4710   -0.1990 c3        1 MOL     -0.265680
      9 C4          1.3170   -4.4210   -0.4190 c         1 MOL      0.889366
     10 O2          0.5250   -4.3750    0.5190 o         1 MOL     -0.548358
     11 C5          3.2260   -3.9510    1.2320 c3        1 MOL     -0.577338
     12 C6          4.7120   -3.8220    1.5560 c         1 MOL      1.081397
     13 O3          5.5910   -4.4400    0.9120 o         1 MOL     -0.824684
     14 O4          5.0330   -3.1960    2.5560 o         1 MOL     -0.824684
     15 H4          4.4250   -4.3220   -1.5680 hn        1 MOL      0.363771
     16 H5          3.0940   -5.5350   -0.2140 h1        1 MOL      0.172992
     17 H6          2.8040   -4.6850    1.9190 hc        1 MOL      0.183522
     18 H7          2.7420   -2.9930    1.4230 hc        1 MOL      0.183522
     19 N2          0.9210   -4.3360   -1.6730 n         1 MOL     -0.726301
     20 C7         -0.4880   -4.4440   -2.1370 c3        1 MOL     -0.094418
     21 C8         -1.2160   -5.5380   -1.2980 c         1 MOL      0.440145
     22 O5         -0.6680   -6.5820   -1.0450 o         1 MOL     -0.562570
     23 C9         -0.6150   -4.6560   -3.6140 c3        1 MOL      0.327602
     24 C10         0.1130   -5.9300   -4.1500 c3        1 MOL      0.099228
     25 C11        -0.1570   -3.4810   -4.4640 c3        1 MOL     -0.398190
     26 C12        -0.0510   -6.2660   -5.6790 c3        1 MOL     -0.128505
     27 H8          1.5850   -4.1880   -2.4130 hn        1 MOL      0.434771
     28 H9         -0.9940   -3.4950   -1.9230 h1        1 MOL      0.104763
     29 H10        -1.6900   -4.8000   -3.7740 hc        1 MOL      0.003626
     30 H11        -0.2930   -6.7420   -3.5450 hc        1 MOL     -0.034352
     31 H12         1.1740   -5.9210   -3.9000 hc        1 MOL     -0.034352
     32 H13         0.9050   -3.3230   -4.3430 hc        1 MOL      0.088654
     33 H14        -0.4680   -3.6620   -5.4970 hc        1 MOL      0.088654
     34 H15        -0.8140   -2.6490   -4.2210 hc        1 MOL      0.088654
     35 H16         0.6140   -5.7100   -6.3460 hc        1 MOL      0.013912
     36 H17         0.2640   -7.2980   -5.8380 hc        1 MOL      0.013912
     37 H18        -1.0740   -6.0740   -5.9740 hc        1 MOL      0.013912
     38 N3         -2.4590   -5.3400   -0.8590 n         1 MOL     -0.177624
     39 C13        -3.2320   -4.1090   -0.8270 c3        1 MOL     -0.444929
     40 C14        -4.2000   -4.0240    0.4160 c         1 MOL      0.679246
     41 O6         -5.1530   -3.2590    0.3370 o         1 MOL     -0.449920
     42 C15        -3.8990   -3.7470   -2.1550 c3        1 MOL     -0.085399
     43 C16        -4.7500   -4.9410   -2.6690 c         1 MOL      0.704433
     44 O7         -5.5420   -5.5400   -1.9060 o         1 MOL     -0.699099
     45 O8         -4.5630   -5.3010   -3.8090 o         1 MOL     -0.699099
     46 H19        -2.9850   -6.0680   -0.4060 hn        1 MOL      0.255590
     47 H20        -2.6480   -3.2030   -0.6910 h1        1 MOL      0.168694
     48 H21        -3.1880   -3.4810   -2.9380 hc        1 MOL      0.018367
     49 H22        -4.4920   -2.8410   -2.0800 hc        1 MOL      0.018367
     50 N4         -3.9860   -4.7830    1.5000 n         1 MOL     -0.353168
     51 C17        -5.0500   -5.1440    2.4730 c3        1 MOL     -0.313756
     52 C18        -5.9060   -4.0410    3.0690 c         1 MOL      0.552469
     53 O9         -6.9860   -4.3300    3.5850 o         1 MOL     -0.590160
     54 H23        -3.1520   -5.3370    1.6380 hn        1 MOL      0.281234
     55 H24        -4.5360   -5.5790    3.3350 h1        1 MOL      0.147386
     56 H25        -5.6760   -5.8680    1.9470 h1        1 MOL      0.147386
     57 N5         -5.4940   -2.7550    3.0670 n         1 MOL     -0.271216
     58 C19        -6.1130   -1.5780    3.6730 c3        1 MOL      0.054020
     59 C20        -7.1640   -0.9680    2.7340 c         1 MOL      0.432548
     60 O10        -8.0300   -0.1980    3.2000 o         1 MOL     -0.545141
     61 C21        -5.0410   -0.5400    4.0430 c3        1 MOL     -0.350736
     62 C22        -3.8970   -0.2890    2.9290 c         1 MOL      0.734172
     63 O11        -2.9350   -1.0980    2.9020 o         1 MOL     -0.694397
     64 O12        -4.2060    0.4420    1.9770 o         1 MOL     -0.694397
     65 H26        -4.7040   -2.5710    2.4730 hn        1 MOL      0.175502
     66 H27        -6.6480   -1.8900    4.5670 h1        1 MOL      0.089020
     67 H28        -4.5210   -0.9170    4.9310 hc        1 MOL      0.060593
     68 H29        -5.3730    0.4670    4.3040 hc        1 MOL      0.060593
     69 N6         -7.0710   -1.3650    1.3980 n         1 MOL     -0.231759
     70 C23        -8.0310   -0.7840    0.4460 c3        1 MOL     -0.211306
     71 C24        -7.8890    0.7680    0.2160 c         1 MOL      0.504587
     72 O13        -8.6540    1.2910   -0.6490 o         1 MOL     -0.581139
     73 H30        -6.2990   -1.9440    1.1020 hn        1 MOL      0.223617
     74 H31        -9.0750   -0.9690    0.6940 h1        1 MOL      0.118193
     75 H32        -7.8990   -1.3120   -0.5020 h1        1 MOL      0.118193
     76 N7         -6.9750    1.4580    0.9260 n         1 MOL     -0.272510
     77 C25        -6.5620    2.8570    0.8830 c3        1 MOL      0.165380
     78 C26        -6.3660    3.4910   -0.5110 c         1 MOL      0.351148
     79 O14        -6.4720    4.7200   -0.7810 o         1 MOL     -0.495535
     80 C27        -7.4710    3.7650    1.7810 c3        1 MOL      0.124525
     81 C28        -7.1380    3.6600    3.2920 c3        1 MOL     -0.172601
     82 C29        -7.2510    4.9410    4.0840 c         1 MOL      0.603952
     83 N8         -7.1650    4.8190    5.3510 n         1 MOL     -0.729057
     84 O15        -7.4690    6.0280    3.5530 o         1 MOL     -0.562222
     85 H33        -6.3850    0.9480    1.5700 hn        1 MOL      0.197776
     86 H34        -5.5490    2.8320    1.2760 h1        1 MOL      0.033644
     87 H35        -8.4920    3.4600    1.5230 hc        1 MOL     -0.029305
     88 H36        -7.3870    4.7870    1.4180 hc        1 MOL     -0.029305
     89 H37        -6.1290    3.2950    3.4910 hc        1 MOL      0.055648
     90 H38        -7.7740    2.8840    3.7270 hc        1 MOL      0.055648
     91 H39        -7.1250    3.8490    5.6280 hn        1 MOL      0.336602
     92 H40        -7.5640    5.6060    5.8420 hn        1 MOL      0.336602
     93 N9         -6.0330    2.6750   -1.5260 n         1 MOL     -0.242432
     94 C30        -5.6070    3.1700   -2.8840 c3        1 MOL     -0.013425
     95 C31        -4.1610    2.9340   -3.2210 c         1 MOL      0.509308
     96 O16        -3.5710    3.7160   -3.9960 o         1 MOL     -0.596247
     97 C32        -6.3180    2.3540   -4.0100 c3        1 MOL      0.213944
     98 C33        -6.2030    0.7960   -3.9600 c3        1 MOL     -0.281635
     99 C34        -7.8330    2.6670   -4.1090 c3        1 MOL     -0.281635
    100 H41        -5.9110    1.6980   -1.2890 hn        1 MOL      0.227070
    101 H42        -5.7960    4.2380   -3.0190 h1        1 MOL      0.101140
    102 H43        -5.9100    2.5750   -4.9960 hc        1 MOL     -0.027366
    103 H44        -5.1790    0.4400   -4.0840 hc        1 MOL      0.064393
    104 H45        -6.5410    0.4750   -2.9660 hc        1 MOL      0.064393
    105 H46        -6.9250    0.3870   -4.6670 hc        1 MOL      0.064393
    106 H47        -7.9830    3.7470   -4.1810 hc        1 MOL      0.064393
    107 H48        -8.2340    2.2360   -5.0210 hc        1 MOL      0.064393
    108 H49        -8.2890    2.1770   -3.2470 hc        1 MOL      0.064393
    109 N10        -3.5540    2.0450   -2.5110 n         1 MOL     -0.411003
    110 C35        -2.1000    1.9240   -2.6340 c3        1 MOL      0.330086
    111 C36        -1.2940    2.6850   -1.5870 c         1 MOL      0.517869
    112 O17        -1.8490    3.2570   -0.6220 o         1 MOL     -0.530346
    113 C37        -1.8600    0.4520   -2.4170 c3        1 MOL     -0.396669
    114 C38        -0.4380   -0.1000   -2.5060 c         1 MOL      0.441305
    115 N11        -0.0220   -0.7170   -1.4820 n         1 MOL     -0.346999
    116 O18         0.2890    0.1620   -3.4240 o         1 MOL     -0.569741
    117 H50        -4.0410    1.5360   -1.7840 hn        1 MOL      0.218249
    118 H51        -1.7190    2.2190   -3.6090 h1        1 MOL      0.033347
    119 H52        -2.4330   -0.0380   -3.2110 hc        1 MOL      0.131076
    120 H53        -2.3010    0.1560   -1.4570 hc        1 MOL      0.131076
    121 H54        -0.6810   -0.9050   -0.7410 hn        1 MOL      0.263376
    122 H55         0.9260   -1.0380   -1.5520 hn        1 MOL      0.263376
    123 N12         0.0150    2.6520   -1.7300 n         1 MOL     -0.632683
    124 C39         0.9210    3.1180   -0.6540 c3        1 MOL      0.276325
    125 C40         2.3430    3.4900   -1.1680 c         1 MOL      0.640569
    126 O19         2.8900    2.8770   -2.1050 o         1 MOL     -0.584384
    127 C41         1.1080    1.8670    0.2890 c3        1 MOL     -0.066493
    128 C42         1.5620    2.2170    1.7190 ca        1 MOL     -0.008834
    129 C43         2.8330    1.8430    2.2440 ca        1 MOL     -0.114690
    130 C44         0.7320    2.9470    2.5840 ca        1 MOL     -0.114690
    131 C45         3.2080    2.2330    3.5180 ca        1 MOL     -0.285804
    132 C46         1.1140    3.3690    3.8290 ca        1 MOL     -0.285804
    133 C47         2.3770    3.0280    4.3070 ca        1 MOL      0.387762
    134 O20         2.8710    3.3160    5.5560 oh        1 MOL     -0.541566
    135 H56         0.3720    2.3490   -2.6170 hn        1 MOL      0.334539
    136 H57         0.4770    3.9030   -0.0410 h1        1 MOL      0.011213
    137 H58         1.7670    1.1510   -0.1930 hc        1 MOL      0.060819
    138 H59         0.1310    1.4020    0.3990 hc        1 MOL      0.060819
    139 H60         3.5220    1.2300    1.6790 ha        1 MOL      0.143427
    140 H61        -0.3180    3.0260    2.3620 ha        1 MOL      0.143427
    141 H62         4.1570    1.9590    3.9540 ha        1 MOL      0.148442
    142 H63         0.4370    4.0230    4.3560 ha        1 MOL      0.148442
    143 H64         3.7600    2.9610    5.6350 ho        1 MOL      0.363075
    144 N13         2.9060    4.4700   -0.4470 n         1 MOL     -0.753907
    145 C48         4.2650    5.0380   -0.6140 c3        1 MOL      0.253690
    146 C49         5.2280    4.6170    0.5290 c         1 MOL      0.563891
    147 O21         5.2320    5.1400    1.6150 o         1 MOL     -0.568432
    148 C50         4.1940    6.5870   -0.7420 c3        1 MOL      0.037778
    149 C51         5.4190    7.3190   -1.1970 c3        1 MOL     -0.419088
    150 C52         5.2070    8.8660   -1.0600 c         1 MOL      0.800842
    151 O22         4.9710    9.3860    0.0170 o         1 MOL     -0.712349
    152 O23         5.4750    9.5190   -2.0920 o         1 MOL     -0.712349
    153 H65         2.4660    4.6720    0.4430 hn        1 MOL      0.341486
    154 H66         4.7050    4.6890   -1.5510 h1        1 MOL      0.041430
    155 H67         3.9780    7.0410    0.2220 hc        1 MOL      0.023901
    156 H68         3.3370    6.9980   -1.2880 hc        1 MOL      0.023901
    157 H69         5.7380    7.0070   -2.1990 hc        1 MOL      0.093068
    158 H70         6.2140    7.1340   -0.4660 hc        1 MOL      0.093068
    159 N14         6.0450    3.5760    0.4320 n         1 MOL     -0.544762
    160 C53         6.1990    2.7200   -0.7630 c3        1 MOL     -0.037389
    161 C54         6.9420    3.3050   -2.0090 c         1 MOL      0.485749
    162 O24         7.8900    4.0640   -1.9410 o         1 MOL     -0.527253
    163 C55         6.9410    1.4310   -0.3270 c3        1 MOL      0.098250
    164 C56         6.2130    0.4550    0.5470 c3        1 MOL     -0.002257
    165 C57         7.0370   -0.8030    0.8340 c         1 MOL      0.679266
    166 O25         7.4730   -1.0160    1.9830 o         1 MOL     -0.734801
    167 O26         7.1380   -1.7700    0.0410 o         1 MOL     -0.734801
    168 H71         6.5670    3.3630    1.2690 hn        1 MOL      0.349261
    169 H72         5.2150    2.3420   -1.0500 h1        1 MOL      0.126456
    170 H73         7.8130    1.7310    0.2590 hc        1 MOL     -0.042466
    171 H74         7.2770    0.8880   -1.2150 hc        1 MOL     -0.042466
    172 H75         5.2520    0.1970    0.0970 hc        1 MOL     -0.011844
    173 H76         6.0010    1.0140    1.4590 hc        1 MOL     -0.011844
    174 N15         6.5130    2.9890   -3.2400 n         1 MOL     -0.329875
    175 C58         6.8930    3.6970   -4.5280 c3        1 MOL     -0.121990
    176 H77         6.8550    2.9890   -5.3560 h1        1 MOL      0.079431
    177 H78         6.1930    4.5120   -4.7150 h1        1 MOL      0.079431
    178 H79         7.9030    4.0970   -4.4390 h1        1 MOL      0.079431
    179 H80         5.8660    2.2160   -3.2930 hn        1 MOL      0.258821
    180 Ca1         7.7670   -3.6030    1.8110 Ca        1 MOL      1.743209
    181 O27         8.4350   -3.3450    4.4570 oh        1 MOL     -0.854196
    182 H81         9.1580   -3.5530    5.0440 ho        1 MOL      0.404675
    183 H82         7.7650   -2.9770    5.0260 ho        1 MOL      0.404675
    184 O28         7.0740   -5.7890    3.2410 oh        1 MOL     -0.854196
    185 H83         6.5070   -5.6650    3.9970 ho        1 MOL      0.404675
    186 H84         7.4990   -6.6310    3.3880 ho        1 MOL      0.404675
    187 O29         9.7950   -5.3630    2.3620 oh        1 MOL     -0.854196
    188 H85         9.9120   -5.9580    3.0970 ho        1 MOL      0.404675
    189 H86        10.5130   -5.5640    1.7610 ho        1 MOL      0.404675
    190 O30        10.0760   -2.7080    1.0600 oh        1 MOL     -0.854196
    191 H87        10.6660   -2.1270    1.5230 ho        1 MOL      0.404675
    192 H88        10.4750   -2.8370    0.2070 ho        1 MOL      0.404675
@<TRIPOS>BOND
     1    1    2 1   
     2    1    4 1   
     3    1    5 1   
     4    1    6 1   
     5    2    3 2   
     6    2    7 1   
     7    7    8 1   
     8    7   15 1   
     9    8    9 1   
    10    8   11 1   
    11    8   16 1   
    12    9   10 2   
    13    9   19 1   
    14   11   12 1   
    15   11   17 1   
    16   11   18 1   
    17   12   13 1   
    18   12   14 1   
    19   19   20 1   
    20   19   27 1   
    21   20   21 1   
    22   20   23 1   
    23   20   28 1   
    24   21   22 2   
    25   21   38 1   
    26   23   24 1   
    27   23   25 1   
    28   23   29 1   
    29   24   26 1   
    30   24   30 1   
    31   24   31 1   
    32   25   32 1   
    33   25   33 1   
    34   25   34 1   
    35   26   35 1   
    36   26   36 1   
    37   26   37 1   
    38   38   39 1   
    39   38   46 1   
    40   39   40 1   
    41   39   42 1   
    42   39   47 1   
    43   40   41 2   
    44   40   50 1   
    45   42   43 1   
    46   42   48 1   
    47   42   49 1   
    48   43   44 1   
    49   43   45 1   
    50   50   51 1   
    51   50   54 1   
    52   51   52 1   
    53   51   55 1   
    54   51   56 1   
    55   52   53 2   
    56   52   57 1   
    57   57   58 1   
    58   57   65 1   
    59   58   59 1   
    60   58   61 1   
    61   58   66 1   
    62   59   60 2   
    63   59   69 1   
    64   61   62 1   
    65   61   67 1   
    66   61   68 1   
    67   62   63 1   
    68   62   64 1   
    69   69   70 1   
    70   69   73 1   
    71   70   71 1   
    72   70   74 1   
    73   70   75 1   
    74   71   72 2   
    75   71   76 1   
    76   76   77 1   
    77   76   85 1   
    78   77   78 1   
    79   77   80 1   
    80   77   86 1   
    81   78   79 2   
    82   78   93 1   
    83   80   81 1   
    84   80   87 1   
    85   80   88 1   
    86   81   82 1   
    87   81   89 1   
    88   81   90 1   
    89   82   83 1   
    90   82   84 2   
    91   83   91 1   
    92   83   92 1   
    93   93   94 1   
    94   93  100 1   
    95   94   95 1   
    96   94   97 1   
    97   94  101 1   
    98   95   96 2   
    99   95  109 1   
   100   97   98 1   
   101   97   99 1   
   102   97  102 1   
   103   98  103 1   
   104   98  104 1   
   105   98  105 1   
   106   99  106 1   
   107   99  107 1   
   108   99  108 1   
   109  109  110 1   
   110  109  117 1   
   111  110  111 1   
   112  110  113 1   
   113  110  118 1   
   114  111  112 2   
   115  111  123 1   
   116  113  114 1   
   117  113  119 1   
   118  113  120 1   
   119  114  115 1   
   120  114  116 2   
   121  115  121 1   
   122  115  122 1   
   123  123  124 1   
   124  123  135 1   
   125  124  125 1   
   126  124  127 1   
   127  124  136 1   
   128  125  126 2   
   129  125  144 1   
   130  127  128 1   
   131  127  137 1   
   132  127  138 1   
   133  128  129 ar  
   134  128  130 ar  
   135  129  131 ar  
   136  129  139 1   
   137  130  132 ar  
   138  130  140 1   
   139  131  133 ar  
   140  131  141 1   
   141  132  133 ar  
   142  132  142 1   
   143  133  134 1   
   144  134  143 1   
   145  144  145 1   
   146  144  153 1   
   147  145  146 1   
   148  145  148 1   
   149  145  154 1   
   150  146  147 2   
   151  146  159 1   
   152  148  149 1   
   153  148  155 1   
   154  148  156 1   
   155  149  150 1   
   156  149  157 1   
   157  149  158 1   
   158  150  151 1   
   159  150  152 1   
   160  159  160 1   
   161  159  168 1   
   162  160  161 1   
   163  160  163 1   
   164  160  169 1   
   165  161  162 2   
   166  161  174 1   
   167  163  164 1   
   168  163  170 1   
   169  163  171 1   
   170  164  165 1   
   171  164  172 1   
   172  164  173 1   
   173  165  166 1   
   174  165  167 1   
   175  174  175 1   
   176  174  179 1   
   177  175  176 1   
   178  175  177 1   
   179  175  178 1   
   180  181  182 1   
   181  181  183 1   
   182  184  185 1   
   183  184  186 1   
   184  187  188 1   
   185  187  189 1   
   186  190  191 1   
   187  190  192 1   
@<TRIPOS>SUBSTRUCTURE
     1 MOL         1 TEMP              0 ****  ****    0 ROOT
