@<TRIPOS>MOLECULE
MOL
  192   187     1     0     0
SMALL
resp


@<TRIPOS>ATOM
      1 C1          4.0560    4.5080   -3.0690 c3        1 MOL     -0.367306
      2 C2          4.8130    3.6440   -1.9910 c         1 MOL      0.729842
      3 O1          4.3180    3.3300   -0.9090 o         1 MOL     -0.549801
      4 H1          3.4620    3.8540   -3.7050 hc        1 MOL      0.090979
      5 H2          3.4010    5.2220   -2.5680 hc        1 MOL      0.090979
      6 H3          4.7820    5.0460   -3.6790 hc        1 MOL      0.090979
      7 N1          6.0380    3.2000   -2.2690 n         1 MOL     -0.654306
      8 C3          6.7960    2.0060   -1.7950 c3        1 MOL      0.182609
      9 C4          5.8770    0.7480   -1.7500 c         1 MOL      0.428452
     10 O2          5.4930    0.3070   -0.6800 o         1 MOL     -0.535910
     11 C5          7.5770    2.2260   -0.4520 c3        1 MOL     -0.141327
     12 C6          7.1150    3.3200    0.5080 c         1 MOL      0.722268
     13 O3          6.3340    3.0020    1.4570 o         1 MOL     -0.728670
     14 O4          7.5240    4.5040    0.4100 o         1 MOL     -0.728670
     15 H4          6.3060    3.7290   -3.0850 hn        1 MOL      0.291560
     16 H5          7.5160    1.6410   -2.5280 h1        1 MOL      0.042349
     17 H6          8.6510    2.3110   -0.6250 hc        1 MOL      0.021543
     18 H7          7.5170    1.2490    0.0200 hc        1 MOL      0.021543
     19 N2          5.5650    0.2780   -2.9770 n         1 MOL     -0.425401
     20 C7          4.7420   -0.9030   -3.2480 c3        1 MOL      0.097018
     21 C8          5.4590   -2.2150   -2.7890 c         1 MOL      0.297656
     22 O5          5.8260   -3.0250   -3.6390 o         1 MOL     -0.523166
     23 C9          3.2420   -0.8440   -2.8760 c3        1 MOL      0.015809
     24 C10         2.2810   -1.8340   -3.5120 c3        1 MOL      0.145027
     25 C11         2.6900    0.4590   -3.1910 c3        1 MOL     -0.025292
     26 C12         2.3960   -1.9520   -5.0070 c3        1 MOL     -0.199236
     27 H8          5.8890    0.7540   -3.8080 hn        1 MOL      0.271112
     28 H9          4.7420   -0.9960   -4.3370 h1        1 MOL      0.055426
     29 H10         3.1730   -0.8740   -1.7910 hc        1 MOL     -0.095164
     30 H11         1.2130   -1.7200   -3.3240 hc        1 MOL      0.023207
     31 H12         2.4840   -2.8010   -3.0540 hc        1 MOL      0.023207
     32 H13         2.9580    0.7240   -4.2150 hc        1 MOL     -0.009967
     33 H14         1.5980    0.4240   -3.2080 hc        1 MOL     -0.009967
     34 H15         3.0140    1.3200   -2.6100 hc        1 MOL     -0.009967
     35 H16         1.6720   -2.6790   -5.3580 hc        1 MOL      0.025480
     36 H17         2.3090   -0.9860   -5.5050 hc        1 MOL      0.025480
     37 H18         3.3840   -2.3510   -5.2040 hc        1 MOL      0.025480
     38 N3          5.5960   -2.5340   -1.5010 n         1 MOL      0.035194
     39 C13         6.2230   -3.7120   -0.9690 c3        1 MOL     -0.072819
     40 C14         5.5140   -4.9990   -1.1170 c         1 MOL      0.540841
     41 O6          6.0510   -5.9240   -1.7440 o         1 MOL     -0.574674
     42 C15         6.7640   -3.4470    0.4410 c3        1 MOL     -0.155191
     43 C16         7.6480   -2.2360    0.5100 c         1 MOL      0.763251
     44 O7          8.4760   -2.0630   -0.4620 o         1 MOL     -0.705446
     45 O8          7.8650   -1.6890    1.6230 o         1 MOL     -0.705446
     46 H19         5.3000   -1.9070   -0.7710 hn        1 MOL      0.194718
     47 H20         7.0850   -3.7730   -1.6390 h1        1 MOL      0.050925
     48 H21         7.2240   -4.3530    0.8360 hc        1 MOL      0.038448
     49 H22         5.9030   -3.3290    1.0970 hc        1 MOL      0.038448
     50 N4          4.2170   -5.1870   -0.7710 n         1 MOL     -0.545984
     51 C17         3.2940   -4.1450   -0.2600 c3        1 MOL      0.417540
     52 C18         2.1730   -4.7030    0.6360 c         1 MOL      0.400497
     53 O9          1.6720   -5.7840    0.4340 o         1 MOL     -0.558987
     54 H23         3.8200   -6.1120   -0.8970 hn        1 MOL      0.283984
     55 H24         2.8430   -3.6400   -1.1170 h1        1 MOL     -0.060561
     56 H25         3.8280   -3.4250    0.3580 h1        1 MOL     -0.060561
     57 N5          1.7710   -3.9740    1.6780 n         1 MOL     -0.349463
     58 C19         2.2760   -2.6710    2.2450 c3        1 MOL     -0.134977
     59 C20         2.4300   -1.4630    1.2000 c         1 MOL      0.064111
     60 O10         3.5430   -1.0190    1.1140 o         1 MOL     -0.482908
     61 C21         3.5560   -2.9760    3.0680 c3        1 MOL      0.026280
     62 C22         3.9040   -1.8240    3.9260 c         1 MOL      0.731659
     63 O11         5.1420   -1.6130    4.1480 o         1 MOL     -0.717321
     64 O12         2.9830   -1.3050    4.6070 o         1 MOL     -0.717321
     65 H26         1.0850   -4.4280    2.2670 hn        1 MOL      0.270128
     66 H27         1.4920   -2.2960    2.8960 h1        1 MOL      0.125571
     67 H28         4.3110   -3.2300    2.3150 hc        1 MOL      0.011892
     68 H29         3.4070   -3.7690    3.7920 hc        1 MOL      0.011892
     69 N6          1.4050   -0.9610    0.4940 n         1 MOL     -0.283814
     70 C23        -0.1030   -1.2360    0.7580 c3        1 MOL      0.002325
     71 C24        -0.8010   -2.4280    0.0790 c         1 MOL      0.346428
     72 O13        -0.2570   -3.0160   -0.8340 o         1 MOL     -0.436908
     73 H30         1.5250   -0.1230   -0.0530 hn        1 MOL      0.387230
     74 H31        -0.7610   -0.3790    0.6030 h1        1 MOL      0.065952
     75 H32        -0.1450   -1.4310    1.8320 h1        1 MOL      0.065952
     76 N7         -2.0420   -2.7410    0.3800 n         1 MOL     -0.314766
     77 C25        -2.8870   -3.8160   -0.1960 c3        1 MOL      0.097317
     78 C26        -3.2360   -3.4780   -1.6720 c         1 MOL      0.245763
     79 O14        -3.3030   -4.3660   -2.5310 o         1 MOL     -0.453892
     80 C27        -4.1480   -4.0890    0.6590 c3        1 MOL      0.060006
     81 C28        -3.9330   -4.2970    2.1920 c3        1 MOL     -0.330086
     82 C29        -5.1080   -4.8450    3.0030 c         1 MOL      0.809945
     83 N8         -4.9830   -5.2480    4.2500 n         1 MOL     -0.852596
     84 O15        -6.2280   -5.0020    2.4820 o         1 MOL     -0.604346
     85 H33        -2.3130   -2.1720    1.1630 hn        1 MOL      0.241585
     86 H34        -2.2630   -4.7010   -0.2360 h1        1 MOL      0.112068
     87 H35        -4.4920   -5.0330    0.2380 hc        1 MOL      0.019709
     88 H36        -4.9390   -3.3430    0.5460 hc        1 MOL      0.019709
     89 H37        -3.6400   -3.3360    2.6060 hc        1 MOL      0.073085
     90 H38        -3.1460   -5.0210    2.3990 hc        1 MOL      0.073085
     91 H39        -4.0630   -5.2840    4.6810 hn        1 MOL      0.375019
     92 H40        -5.7970   -5.5030    4.7820 hn        1 MOL      0.375019
     93 N9         -3.4920   -2.1520   -1.9190 n         1 MOL     -0.137145
     94 C30        -3.9210   -1.5600   -3.2450 c3        1 MOL     -0.005301
     95 C31        -5.3040   -1.0300   -3.3480 c         1 MOL      0.442534
     96 O16        -5.7560   -0.7390   -4.5060 o         1 MOL     -0.564637
     97 C32        -2.8460   -0.5700   -3.6590 c3        1 MOL      0.041992
     98 C33        -1.4320   -1.0270   -3.9540 c3        1 MOL     -0.200598
     99 C34        -2.8300    0.5560   -2.5830 c3        1 MOL     -0.200598
    100 H41        -3.4800   -1.4460   -1.1950 hn        1 MOL      0.154565
    101 H42        -3.8890   -2.4450   -3.8690 h1        1 MOL      0.093832
    102 H43        -3.2150   -0.1560   -4.6010 hc        1 MOL      0.035806
    103 H44        -1.2790   -1.8750   -3.2870 hc        1 MOL      0.061582
    104 H45        -1.3890   -1.3490   -4.9940 hc        1 MOL      0.061582
    105 H46        -0.6700   -0.2670   -3.7600 hc        1 MOL      0.061582
    106 H47        -2.1350    1.3450   -2.8790 hc        1 MOL      0.061582
    107 H48        -3.8020    0.9690   -2.3020 hc        1 MOL      0.061582
    108 H49        -2.2870    0.1870   -1.7120 hc        1 MOL      0.061582
    109 N10        -6.0080   -0.9470   -2.2170 n         1 MOL     -0.278997
    110 C35        -7.4020   -0.4660   -2.1830 c3        1 MOL      0.245196
    111 C36        -7.6620    0.7340   -1.2770 c         1 MOL      0.411736
    112 O17        -8.8000    1.1780   -1.1490 o         1 MOL     -0.537213
    113 C37        -8.4170   -1.6370   -1.8870 c3        1 MOL     -0.425335
    114 C38        -8.3940   -2.8910   -2.6680 c         1 MOL      0.663885
    115 N11        -8.1610   -2.8530   -4.0020 n         1 MOL     -0.815067
    116 O18        -8.4550   -4.0250   -2.1390 o         1 MOL     -0.545789
    117 H50        -5.5130   -1.2930   -1.4030 hn        1 MOL      0.216094
    118 H51        -7.7020   -0.0490   -3.1430 h1        1 MOL      0.037041
    119 H52        -9.4190   -1.2330   -2.0950 hc        1 MOL      0.123745
    120 H53        -8.3270   -1.8340   -0.8130 hc        1 MOL      0.123745
    121 H54        -8.2360   -1.9580   -4.4600 hn        1 MOL      0.380241
    122 H55        -7.9870   -3.7040   -4.5210 hn        1 MOL      0.380241
    123 N12        -6.6280    1.3160   -0.6480 n         1 MOL     -0.190439
    124 C39        -6.5430    2.4790    0.2740 c3        1 MOL      0.062787
    125 C40        -5.0880    2.9230    0.4840 c         1 MOL      0.475473
    126 O19        -4.2320    2.2750   -0.1080 o         1 MOL     -0.433088
    127 C41        -7.2100    2.1570    1.6770 c3        1 MOL     -0.219045
    128 C42        -6.5130    1.0470    2.4850 ca        1 MOL      0.012522
    129 C43        -6.5270   -0.2660    2.0030 ca        1 MOL     -0.109227
    130 C44        -6.0300    1.2940    3.7970 ca        1 MOL     -0.109227
    131 C45        -6.1340   -1.3210    2.7950 ca        1 MOL     -0.310582
    132 C46        -5.5450    0.2260    4.5390 ca        1 MOL     -0.310582
    133 C47        -5.5110   -1.0770    4.0340 ca        1 MOL      0.411630
    134 O20        -5.1000   -2.1180    4.8670 oh        1 MOL     -0.536262
    135 H56        -5.7060    1.1110   -1.0120 hn        1 MOL      0.074490
    136 H57        -7.1250    3.3150   -0.0940 h1        1 MOL      0.049567
    137 H58        -8.2110    1.8170    1.4010 hc        1 MOL      0.095264
    138 H59        -7.4190    3.0330    2.2800 hc        1 MOL      0.095264
    139 H60        -6.8670   -0.4990    1.0040 ha        1 MOL      0.130852
    140 H61        -6.0750    2.2710    4.2450 ha        1 MOL      0.130852
    141 H62        -6.1270   -2.2820    2.2960 ha        1 MOL      0.163083
    142 H63        -5.0000    0.4450    5.4320 ha        1 MOL      0.163083
    143 H64        -4.8750   -1.7790    5.7410 ho        1 MOL      0.383262
    144 N13        -4.7980    4.0220    1.1930 n         1 MOL     -0.641708
    145 C48        -3.4350    4.5450    1.6190 c3        1 MOL      0.257984
    146 C49        -2.5270    5.0370    0.5060 c         1 MOL      0.540247
    147 O21        -2.1260    6.1590    0.5740 o         1 MOL     -0.569554
    148 C50        -2.7590    3.5070    2.4580 c3        1 MOL     -0.027802
    149 C51        -1.5200    3.9630    3.2120 c3        1 MOL     -0.269515
    150 C52        -1.0250    2.8670    4.1520 c         1 MOL      0.771551
    151 O22        -0.5940    1.8010    3.6780 o         1 MOL     -0.725525
    152 O23        -1.0660    3.1050    5.3630 o         1 MOL     -0.725525
    153 H65        -5.5580    4.5290    1.6190 hn        1 MOL      0.329198
    154 H66        -3.5900    5.4380    2.2340 h1        1 MOL      0.018562
    155 H67        -2.4200    2.7010    1.8130 hc        1 MOL      0.026637
    156 H68        -3.4970    3.2420    3.2150 hc        1 MOL      0.026637
    157 H69        -1.8220    4.8720    3.7300 hc        1 MOL      0.042360
    158 H70        -0.8610    4.2610    2.3970 hc        1 MOL      0.042360
    159 N14        -2.2410    4.2530   -0.5380 n         1 MOL     -0.641801
    160 C53        -1.0710    4.5380   -1.4570 c3        1 MOL      0.102460
    161 C54        -1.4200    5.4730   -2.6150 c         1 MOL      0.475110
    162 O24        -0.6380    5.6000   -3.5440 o         1 MOL     -0.547649
    163 C55        -0.3210    3.2810   -1.8840 c3        1 MOL     -0.113777
    164 C56        -0.0760    2.2020   -0.8030 c3        1 MOL      0.542575
    165 C57         1.0530    2.5030    0.1470 c         1 MOL      0.525189
    166 O25         1.9720    1.7350    0.1820 o         1 MOL     -0.647930
    167 O26         1.1320    3.6160    0.8040 o         1 MOL     -0.647930
    168 H71        -2.6310    3.3210   -0.5570 hn        1 MOL      0.311391
    169 H72        -0.3430    5.1390   -0.9070 h1        1 MOL      0.119444
    170 H73         0.6140    3.6630   -2.2850 hc        1 MOL      0.011319
    171 H74        -0.9810    2.9070   -2.6670 hc        1 MOL      0.011319
    172 H75         0.1440    1.3190   -1.4000 hc        1 MOL     -0.176541
    173 H76        -1.0050    2.0190   -0.2590 hc        1 MOL     -0.176541
    174 N15        -2.5630    6.1310   -2.4850 n         1 MOL     -0.273897
    175 C58        -3.1850    7.1500   -3.3620 c3        1 MOL     -0.123094
    176 H77        -2.4660    7.4670   -4.1170 h1        1 MOL      0.068024
    177 H78        -4.0610    6.7240   -3.8530 h1        1 MOL      0.068024
    178 H79        -3.4870    8.0100   -2.7640 h1        1 MOL      0.068024
    179 H80        -3.0930    5.9160   -1.6550 hn        1 MOL      0.256827
    180 Ca1         4.1490    1.5440    1.4760 Ca        1 MOL      1.825485
    181 O27         2.0320    1.1000    3.1360 oh        1 MOL     -0.841197
    182 H81         1.9050    0.2540    3.5760 ho        1 MOL      0.402793
    183 H82         1.2120    1.5660    3.2700 ho        1 MOL      0.402793
    184 O28         6.2780    0.0860    2.4370 oh        1 MOL     -0.841197
    185 H83         6.9700   -0.4510    2.0440 ho        1 MOL      0.402793
    186 H84         6.0170   -0.4010    3.2230 ho        1 MOL      0.402793
    187 O29         4.7700    2.2180    4.2150 oh        1 MOL     -0.841197
    188 H85         3.9910    2.5550    4.6570 ho        1 MOL      0.402793
    189 H86         5.2800    1.8060    4.9040 ho        1 MOL      0.402793
    190 O30         3.3380    4.2490    2.6270 oh        1 MOL     -0.841197
    191 H87         2.7860    4.6350    1.9440 ho        1 MOL      0.402793
    192 H88         2.9540    4.5710    3.4420 ho        1 MOL      0.402793
@<TRIPOS>BOND
     1    1    2 1   
     2    1    4 1   
     3    1    5 1   
     4    1    6 1   
     5    2    3 2   
     6    2    7 1   
     7    7    8 1   
     8    7   15 1   
     9    8    9 1   
    10    8   11 1   
    11    8   16 1   
    12    9   10 2   
    13    9   19 1   
    14   11   12 1   
    15   11   17 1   
    16   11   18 1   
    17   12   13 1   
    18   12   14 1   
    19   19   20 1   
    20   19   27 1   
    21   20   21 1   
    22   20   23 1   
    23   20   28 1   
    24   21   22 2   
    25   21   38 1   
    26   23   24 1   
    27   23   25 1   
    28   23   29 1   
    29   24   26 1   
    30   24   30 1   
    31   24   31 1   
    32   25   32 1   
    33   25   33 1   
    34   25   34 1   
    35   26   35 1   
    36   26   36 1   
    37   26   37 1   
    38   38   39 1   
    39   38   46 1   
    40   39   40 1   
    41   39   42 1   
    42   39   47 1   
    43   40   41 2   
    44   40   50 1   
    45   42   43 1   
    46   42   48 1   
    47   42   49 1   
    48   43   44 1   
    49   43   45 1   
    50   50   51 1   
    51   50   54 1   
    52   51   52 1   
    53   51   55 1   
    54   51   56 1   
    55   52   53 2   
    56   52   57 1   
    57   57   58 1   
    58   57   65 1   
    59   58   59 1   
    60   58   61 1   
    61   58   66 1   
    62   59   60 2   
    63   59   69 1   
    64   61   62 1   
    65   61   67 1   
    66   61   68 1   
    67   62   63 1   
    68   62   64 1   
    69   69   70 1   
    70   69   73 1   
    71   70   71 1   
    72   70   74 1   
    73   70   75 1   
    74   71   72 2   
    75   71   76 1   
    76   76   77 1   
    77   76   85 1   
    78   77   78 1   
    79   77   80 1   
    80   77   86 1   
    81   78   79 2   
    82   78   93 1   
    83   80   81 1   
    84   80   87 1   
    85   80   88 1   
    86   81   82 1   
    87   81   89 1   
    88   81   90 1   
    89   82   83 1   
    90   82   84 2   
    91   83   91 1   
    92   83   92 1   
    93   93   94 1   
    94   93  100 1   
    95   94   95 1   
    96   94   97 1   
    97   94  101 1   
    98   95   96 2   
    99   95  109 1   
   100   97   98 1   
   101   97   99 1   
   102   97  102 1   
   103   98  103 1   
   104   98  104 1   
   105   98  105 1   
   106   99  106 1   
   107   99  107 1   
   108   99  108 1   
   109  109  110 1   
   110  109  117 1   
   111  110  111 1   
   112  110  113 1   
   113  110  118 1   
   114  111  112 2   
   115  111  123 1   
   116  113  114 1   
   117  113  119 1   
   118  113  120 1   
   119  114  115 1   
   120  114  116 2   
   121  115  121 1   
   122  115  122 1   
   123  123  124 1   
   124  123  135 1   
   125  124  125 1   
   126  124  127 1   
   127  124  136 1   
   128  125  126 2   
   129  125  144 1   
   130  127  128 1   
   131  127  137 1   
   132  127  138 1   
   133  128  129 ar  
   134  128  130 ar  
   135  129  131 ar  
   136  129  139 1   
   137  130  132 ar  
   138  130  140 1   
   139  131  133 ar  
   140  131  141 1   
   141  132  133 ar  
   142  132  142 1   
   143  133  134 1   
   144  134  143 1   
   145  144  145 1   
   146  144  153 1   
   147  145  146 1   
   148  145  148 1   
   149  145  154 1   
   150  146  147 2   
   151  146  159 1   
   152  148  149 1   
   153  148  155 1   
   154  148  156 1   
   155  149  150 1   
   156  149  157 1   
   157  149  158 1   
   158  150  151 1   
   159  150  152 1   
   160  159  160 1   
   161  159  168 1   
   162  160  161 1   
   163  160  163 1   
   164  160  169 1   
   165  161  162 2   
   166  161  174 1   
   167  163  164 1   
   168  163  170 1   
   169  163  171 1   
   170  164  165 1   
   171  164  172 1   
   172  164  173 1   
   173  165  166 1   
   174  165  167 1   
   175  174  175 1   
   176  174  179 1   
   177  175  176 1   
   178  175  177 1   
   179  175  178 1   
   180  181  182 1   
   181  181  183 1   
   182  184  185 1   
   183  184  186 1   
   184  187  188 1   
   185  187  189 1   
   186  190  191 1   
   187  190  192 1   
@<TRIPOS>SUBSTRUCTURE
     1 MOL         1 TEMP              0 ****  ****    0 ROOT
