@<TRIPOS>MOLECULE
MOL
  198   191     1     0     0
SMALL
resp


@<TRIPOS>ATOM
      1 C1         -5.0130   -5.8190    1.6730 c3        1 MOL     -0.380340
      2 C2         -6.4930   -5.9450    1.1540 c         1 MOL      0.694934
      3 O1         -7.3080   -6.4440    1.9070 o         1 MOL     -0.545059
      4 H1         -4.8420   -6.5510    2.4630 hc        1 MOL      0.094199
      5 H2         -4.3220   -6.0050    0.8500 hc        1 MOL      0.094199
      6 H3         -4.8490   -4.8160    2.0660 hc        1 MOL      0.094199
      7 N1         -6.7370   -5.4050   -0.0630 n         1 MOL     -0.716827
      8 C3         -8.1120   -4.9010   -0.5210 c3        1 MOL      0.400416
      9 C4         -8.6390   -3.7120    0.2640 c         1 MOL      0.443638
     10 O2         -7.9550   -3.3040    1.1680 o         1 MOL     -0.499724
     11 C5         -9.0500   -6.0600   -0.7140 c3        1 MOL     -0.181000
     12 C6        -10.2320   -5.9020   -1.6160 c         1 MOL      0.712030
     13 O3        -11.1080   -6.7650   -1.7390 o         1 MOL     -0.708902
     14 O4        -10.3140   -4.8020   -2.2140 o         1 MOL     -0.708902
     15 H4         -5.9580   -4.9610   -0.5270 hn        1 MOL      0.331432
     16 H5         -7.9760   -4.5700   -1.5560 h1        1 MOL     -0.016525
     17 H6         -9.4340   -6.3760    0.2510 hc        1 MOL      0.034775
     18 H7         -8.5090   -6.9400   -1.0590 hc        1 MOL      0.034775
     19 N2         -9.7290   -3.0790   -0.2190 n         1 MOL     -0.437972
     20 C7        -10.4420   -1.8600    0.3180 c3        1 MOL      0.198961
     21 C8         -9.5300   -0.5870    0.5400 c         1 MOL      0.328334
     22 O5         -9.9260    0.2890    1.3510 o         1 MOL     -0.545428
     23 C9        -11.2720   -2.1860    1.6400 c3        1 MOL      0.069365
     24 C10       -12.3560   -3.2230    1.4120 c3        1 MOL     -0.096261
     25 C11       -13.3490   -3.1690    0.1940 c3        1 MOL     -0.177767
     26 C12       -14.2260   -4.4730    0.3470 c3        1 MOL      0.165768
     27 N3        -15.1960   -4.7240   -0.6650 n4        1 MOL     -0.281431
     28 H8        -10.1850   -3.6170   -0.9460 hn        1 MOL      0.197076
     29 H9        -11.1560   -1.5750   -0.4520 h1        1 MOL      0.031117
     30 H10       -11.7400   -1.2620    1.9750 hc        1 MOL      0.017270
     31 H11       -10.5540   -2.4580    2.4190 hc        1 MOL      0.017270
     32 H12       -12.9660   -3.2070    2.3190 hc        1 MOL      0.041311
     33 H13       -11.8600   -4.1960    1.4590 hc        1 MOL      0.041311
     34 H14       -12.7700   -3.1570   -0.7370 hc        1 MOL      0.064715
     35 H15       -13.9540   -2.2640    0.2720 hc        1 MOL      0.064715
     36 H16       -14.8480   -4.3570    1.2280 hx        1 MOL      0.040333
     37 H17       -13.5270   -5.3030    0.4710 hx        1 MOL      0.040333
     38 H18       -15.7750   -3.8890   -0.7520 hn        1 MOL      0.307109
     39 H19       -14.8510   -4.9790   -1.5710 hn        1 MOL      0.307109
     40 H20       -15.7620   -5.5240   -0.4190 hn        1 MOL      0.307109
     41 N4         -8.3820   -0.4990   -0.0130 n         1 MOL     -0.345858
     42 C13        -7.6350    0.7660   -0.0200 c3        1 MOL      0.226150
     43 C14        -6.6310    0.7000   -1.2250 c         1 MOL      0.384696
     44 O6         -5.9210   -0.2710   -1.4870 o         1 MOL     -0.544290
     45 C15        -6.9230    0.9540    1.3370 c3        1 MOL      0.104099
     46 C16        -6.0610    2.1410    1.5450 c         1 MOL      0.525594
     47 O7         -6.1140    3.0050    0.6740 o         1 MOL     -0.690383
     48 O8         -5.3180    2.1330    2.5490 o         1 MOL     -0.690383
     49 H21        -8.0640   -1.2520   -0.6080 hn        1 MOL      0.222120
     50 H22        -8.2580    1.6480   -0.1580 h1        1 MOL      0.039173
     51 H23        -6.3670    0.0410    1.5620 hc        1 MOL      0.010575
     52 H24        -7.6570    1.0590    2.1440 hc        1 MOL      0.010575
     53 N5         -6.5250    1.6610   -2.1420 n         1 MOL     -0.220275
     54 C17        -7.1150    2.9720   -2.3280 c3        1 MOL     -0.338273
     55 C18        -6.0790    4.0410   -2.6550 c         1 MOL      0.737713
     56 O9         -6.0190    4.6330   -3.7000 o         1 MOL     -0.576562
     57 H25        -5.9740    1.3040   -2.9180 hn        1 MOL      0.278847
     58 H26        -7.6880    3.2640   -1.4410 h1        1 MOL      0.125842
     59 H27        -7.8160    3.0450   -3.1610 h1        1 MOL      0.125842
     60 N6         -5.1910    4.3820   -1.6850 n         1 MOL     -0.415581
     61 C19        -3.9170    5.0470   -1.9810 c3        1 MOL      0.138826
     62 C20        -2.7680    4.3530   -1.1740 c         1 MOL      0.132613
     63 O10        -3.0390    3.6220   -0.2000 o         1 MOL     -0.602703
     64 C21        -3.9860    6.5720   -1.7220 c3        1 MOL     -0.027940
     65 C22        -4.6890    6.9810   -0.4360 c         1 MOL      0.608631
     66 O11        -4.5540    6.3050    0.6150 o         1 MOL     -0.653410
     67 O12        -5.3670    7.9530   -0.4230 o         1 MOL     -0.653410
     68 H28        -5.0540    3.6640   -0.9780 hn        1 MOL      0.227044
     69 H29        -3.6690    4.9320   -3.0350 h1        1 MOL      0.027007
     70 H30        -4.4580    7.0510   -2.5820 hc        1 MOL      0.001354
     71 H31        -2.9500    6.8770   -1.6420 hc        1 MOL      0.001354
     72 N7         -1.5970    4.6110   -1.6430 n         1 MOL     -0.088275
     73 C23        -0.3310    4.1060   -0.9330 c3        1 MOL     -0.120457
     74 C24        -0.1460    2.6220   -1.2550 c         1 MOL      0.422862
     75 O13         0.8970    2.2250   -1.8200 o         1 MOL     -0.496086
     76 H32        -1.5340    5.1000   -2.5190 hn        1 MOL      0.248862
     77 H33        -0.3770    4.3420    0.1310 h1        1 MOL      0.072651
     78 H34         0.5180    4.7170   -1.2620 h1        1 MOL      0.072651
     79 N8         -1.0800    1.7170   -0.8910 n         1 MOL     -0.461842
     80 C25        -0.9470    0.2770   -1.2860 c3        1 MOL      0.015021
     81 C26        -0.0220   -0.4650   -0.2740 c         1 MOL      0.324869
     82 O14        -0.0440   -0.0950    0.8720 o         1 MOL     -0.514830
     83 C27        -2.3550   -0.3310   -1.1900 c3        1 MOL      0.462399
     84 C28        -3.1610   -0.4110    0.1390 c3        1 MOL     -0.340922
     85 O15        -3.2120    0.3440   -2.0770 oh        1 MOL     -0.706014
     86 H35        -1.9590    2.0980   -0.5890 hn        1 MOL      0.521745
     87 H36        -0.5820    0.1540   -2.3120 h1        1 MOL      0.090141
     88 H37        -2.1730   -1.3570   -1.5240 h1        1 MOL     -0.077883
     89 H38        -4.0970    0.0080   -1.9590 ho        1 MOL      0.396868
     90 H39        -2.5700   -0.9660    0.8690 hc        1 MOL      0.089166
     91 H40        -3.3330    0.6360    0.3830 hc        1 MOL      0.089166
     92 H41        -4.0310   -1.0770    0.0610 hc        1 MOL      0.089166
     93 N9          0.6480   -1.5050   -0.7200 n         1 MOL     -0.160964
     94 C29         1.5300   -2.2530    0.1540 c3        1 MOL     -0.322478
     95 C30         2.7630   -1.4220    0.5050 c         1 MOL      0.532617
     96 O16         3.4420   -1.6370    1.5280 o         1 MOL     -0.557648
     97 C31         1.9190   -3.5280   -0.5230 c3        1 MOL      0.103058
     98 C32         2.8720   -3.5090   -1.7160 c3        1 MOL      0.143467
     99 C33         0.7120   -4.4050   -0.9410 c3        1 MOL     -0.230787
    100 C34         3.2500   -4.8590   -2.3600 c3        1 MOL     -0.101963
    101 H42         0.4660   -1.8870   -1.6370 hn        1 MOL      0.233236
    102 H43         0.9540   -2.4720    1.0570 h1        1 MOL      0.194588
    103 H44         2.4440   -4.1320    0.2120 hc        1 MOL      0.045571
    104 H45         3.8430   -3.0650   -1.4860 hc        1 MOL     -0.027881
    105 H46         2.4300   -2.8070   -2.4280 hc        1 MOL     -0.027881
    106 H47         0.8830   -5.4880   -0.9270 hc        1 MOL      0.057407
    107 H48        -0.0710   -4.3780   -0.1870 hc        1 MOL      0.057407
    108 H49         0.2670   -4.0670   -1.8730 hc        1 MOL      0.057407
    109 H50         2.3320   -5.1110   -2.8880 hc        1 MOL      0.024127
    110 H51         4.0210   -4.7690   -3.1230 hc        1 MOL      0.024127
    111 H52         3.4220   -5.6560   -1.6360 hc        1 MOL      0.024127
    112 N10         3.1980   -0.5540   -0.3940 n         1 MOL     -0.235078
    113 C35         4.4140    0.3450   -0.2970 c3        1 MOL     -0.041886
    114 C36         5.2610   -0.0200   -1.4700 c         1 MOL      0.545509
    115 O17         4.8100   -0.0140   -2.6330 o         1 MOL     -0.557100
    116 C37         4.0580    1.8910   -0.4000 c3        1 MOL      0.597924
    117 C38         3.1410    2.2650    0.7430 c3        1 MOL     -0.446977
    118 O18         5.1780    2.6440   -0.0860 oh        1 MOL     -0.676676
    119 H53         2.7060   -0.3280   -1.2500 hn        1 MOL      0.152509
    120 H54         4.9280    0.2350    0.6530 h1        1 MOL      0.110125
    121 H55         3.6220    2.1710   -1.3580 h1        1 MOL     -0.066020
    122 H56         5.1000    3.5040   -0.4840 ho        1 MOL      0.400512
    123 H57         3.5630    1.9690    1.6990 hc        1 MOL      0.103387
    124 H58         2.9150    3.3330    0.6830 hc        1 MOL      0.103387
    125 H59         2.2530    1.6720    0.5220 hc        1 MOL      0.103387
    126 N11         6.5630   -0.0990   -1.2330 n         1 MOL     -0.534796
    127 C39         7.5150   -0.3230   -2.3310 c3        1 MOL      0.025843
    128 C40         8.8550   -0.7390   -1.6990 c         1 MOL      0.554249
    129 O19         9.5020   -1.6130   -2.3190 o         1 MOL     -0.554502
    130 C41         7.6420    0.8570   -3.2550 c3        1 MOL      0.289037
    131 C42         8.6630    0.8170   -4.2980 c3        1 MOL     -0.316114
    132 O20         7.7640    1.9960   -2.4190 oh        1 MOL     -0.622786
    133 H60         6.9390    0.1360   -0.3270 hn        1 MOL      0.286849
    134 H61         7.2110   -1.1750   -2.9430 h1        1 MOL      0.093243
    135 H62         6.6860    0.9480   -3.7710 h1        1 MOL      0.053133
    136 H63         6.9020    2.4100   -2.4570 ho        1 MOL      0.378963
    137 H64         8.8050   -0.1530   -4.7830 hc        1 MOL      0.085070
    138 H65         8.6120    1.6240   -5.0370 hc        1 MOL      0.085070
    139 H66         9.6230    0.9050   -3.7910 hc        1 MOL      0.085070
    140 N12         9.3320   -0.2270   -0.5980 n         1 MOL     -0.448980
    141 C43        10.7010   -0.3730   -0.3050 c3        1 MOL      0.128342
    142 C44        10.9280   -0.1970    1.2540 c         1 MOL      0.278693
    143 O21        10.4290    0.6410    1.9260 o         1 MOL     -0.485152
    144 C45        11.6310    0.4630   -1.2280 c3        1 MOL      0.006037
    145 C46        13.0810    0.0330   -1.1480 c3        1 MOL      0.151129
    146 C47        13.9310    0.9240   -2.1160 c3        1 MOL     -0.133327
    147 C48        15.4220    0.5440   -2.3310 c3        1 MOL      0.044621
    148 N13        15.6700   -0.6680   -3.1060 n4        1 MOL     -0.149507
    149 H67         8.8190    0.5560   -0.2290 hn        1 MOL      0.298063
    150 H68        11.0050   -1.3930   -0.5340 h1        1 MOL      0.062074
    151 H69        11.6180    1.5140   -0.9390 hc        1 MOL      0.005906
    152 H70        11.3430    0.3700   -2.2750 hc        1 MOL      0.005906
    153 H71        13.1350   -0.9800   -1.5410 hc        1 MOL     -0.017600
    154 H72        13.4850    0.2090   -0.1480 hc        1 MOL     -0.017600
    155 H73        13.9470    1.9640   -1.7870 hc        1 MOL      0.049350
    156 H74        13.5020    0.9300   -3.1240 hc        1 MOL      0.049350
    157 H75        15.9840    0.3140   -1.4330 hx        1 MOL      0.059674
    158 H76        16.0170    1.2690   -2.8830 hx        1 MOL      0.059674
    159 H77        16.6690   -0.8270   -3.0840 hn        1 MOL      0.270959
    160 H78        15.2770   -1.4600   -2.6220 hn        1 MOL      0.270959
    161 H79        15.3780   -0.6400   -4.0740 hn        1 MOL      0.270959
    162 N14        11.6290   -1.2080    1.7760 n         1 MOL     -0.073774
    163 C49        12.2630   -1.1810    3.1000 c3        1 MOL      0.357153
    164 C50        11.2740   -1.2950    4.2680 c         1 MOL      0.147774
    165 O22        11.5930   -0.8000    5.3500 o         1 MOL     -0.532436
    166 C51        13.3200   -2.3110    3.3410 c3        1 MOL     -0.088394
    167 C52        14.3370   -2.3280    2.1940 c3        1 MOL     -0.167405
    168 C53        13.9430   -3.3110    1.1000 c         1 MOL      0.568508
    169 O23        14.3000   -4.5220    1.1790 o         1 MOL     -0.642021
    170 O24        13.2060   -2.8820    0.1560 o         1 MOL     -0.642021
    171 H80        11.9610   -1.9500    1.1680 hn        1 MOL      0.088102
    172 H81        12.8320   -0.2540    3.1840 h1        1 MOL     -0.017218
    173 H82        12.8200   -3.2730    3.4090 hc        1 MOL      0.077225
    174 H83        13.8270   -2.1200    4.2870 hc        1 MOL      0.077225
    175 H84        15.2360   -2.6260    2.7370 hc        1 MOL      0.010170
    176 H85        14.3990   -1.3120    1.7980 hc        1 MOL      0.010170
    177 N15        10.0320   -1.7970    4.2840 n         1 MOL     -0.164510
    178 C54         9.3970   -2.6700    3.2970 c3        1 MOL     -0.273034
    179 H86         9.0650   -2.0740    2.4470 h1        1 MOL      0.101022
    180 H87        10.1130   -3.4180    2.9580 h1        1 MOL      0.101022
    181 H88         8.5380   -3.1660    3.7490 h1        1 MOL      0.101022
    182 H89         9.4460   -1.6300    5.0950 hn        1 MOL      0.270910
    183 Ca1        -4.0340    4.4050    2.1960 Ca        1 MOL      1.742241
    184 O25        -6.5980    5.2100    2.7590 oh        1 MOL     -0.840054
    185 H90        -7.0100    5.1600    3.6280 ho        1 MOL      0.418423
    186 H91        -7.3340    5.2510    2.1470 ho        1 MOL      0.418423
    187 O26        -3.3190    3.8410    4.6800 oh        1 MOL     -0.840054
    188 H92        -3.7520    3.1940    5.2350 ho        1 MOL      0.418423
    189 H93        -2.6670    4.2580    5.2450 ho        1 MOL      0.418423
    190 O27        -1.4110    5.2980    2.5460 oh        1 MOL     -0.840054
    191 H94        -0.8470    6.0540    2.3660 ho        1 MOL      0.418423
    192 H95        -0.8000    4.5780    2.7040 ho        1 MOL      0.418423
    193 O28        -2.1740    2.2950    2.3620 oh        1 MOL     -0.840054
    194 H96        -2.2860    1.4070    2.7020 ho        1 MOL      0.418423
    195 H97        -1.2490    2.3460    2.1360 ho        1 MOL      0.418423
    196 O29        -4.2590    6.7870    3.3820 oh        1 MOL     -0.840054
    197 H98        -3.6080    7.4180    3.6740 ho        1 MOL      0.418423
    198 H99        -4.9050    7.3060    2.9050 ho        1 MOL      0.418423
@<TRIPOS>BOND
     1    1    2 1   
     2    1    4 1   
     3    1    5 1   
     4    1    6 1   
     5    2    3 2   
     6    2    7 1   
     7    7    8 1   
     8    7   15 1   
     9    8    9 1   
    10    8   11 1   
    11    8   16 1   
    12    9   10 2   
    13    9   19 1   
    14   11   12 1   
    15   11   17 1   
    16   11   18 1   
    17   12   13 1   
    18   12   14 1   
    19   19   20 1   
    20   19   28 1   
    21   20   21 1   
    22   20   23 1   
    23   20   29 1   
    24   21   22 2   
    25   21   41 1   
    26   23   24 1   
    27   23   30 1   
    28   23   31 1   
    29   24   25 1   
    30   24   32 1   
    31   24   33 1   
    32   25   26 1   
    33   25   34 1   
    34   25   35 1   
    35   26   27 1   
    36   26   36 1   
    37   26   37 1   
    38   27   38 1   
    39   27   39 1   
    40   27   40 1   
    41   41   42 1   
    42   41   49 1   
    43   42   43 1   
    44   42   45 1   
    45   42   50 1   
    46   43   44 2   
    47   43   53 1   
    48   45   46 1   
    49   45   51 1   
    50   45   52 1   
    51   46   47 1   
    52   46   48 1   
    53   53   54 1   
    54   53   57 1   
    55   54   55 1   
    56   54   58 1   
    57   54   59 1   
    58   55   56 2   
    59   55   60 1   
    60   60   61 1   
    61   60   68 1   
    62   61   62 1   
    63   61   64 1   
    64   61   69 1   
    65   62   63 2   
    66   62   72 1   
    67   64   65 1   
    68   64   70 1   
    69   64   71 1   
    70   65   66 1   
    71   65   67 1   
    72   72   73 1   
    73   72   76 1   
    74   73   74 1   
    75   73   77 1   
    76   73   78 1   
    77   74   75 2   
    78   74   79 1   
    79   79   80 1   
    80   79   86 1   
    81   80   81 1   
    82   80   83 1   
    83   80   87 1   
    84   81   82 2   
    85   81   93 1   
    86   83   84 1   
    87   83   85 1   
    88   83   88 1   
    89   84   90 1   
    90   84   91 1   
    91   84   92 1   
    92   85   89 1   
    93   93   94 1   
    94   93  101 1   
    95   94   95 1   
    96   94   97 1   
    97   94  102 1   
    98   95   96 2   
    99   95  112 1   
   100   97   98 1   
   101   97   99 1   
   102   97  103 1   
   103   98  100 1   
   104   98  104 1   
   105   98  105 1   
   106   99  106 1   
   107   99  107 1   
   108   99  108 1   
   109  100  109 1   
   110  100  110 1   
   111  100  111 1   
   112  112  113 1   
   113  112  119 1   
   114  113  114 1   
   115  113  116 1   
   116  113  120 1   
   117  114  115 2   
   118  114  126 1   
   119  116  117 1   
   120  116  118 1   
   121  116  121 1   
   122  117  123 1   
   123  117  124 1   
   124  117  125 1   
   125  118  122 1   
   126  126  127 1   
   127  126  133 1   
   128  127  128 1   
   129  127  130 1   
   130  127  134 1   
   131  128  129 2   
   132  128  140 1   
   133  130  131 1   
   134  130  132 1   
   135  130  135 1   
   136  131  137 1   
   137  131  138 1   
   138  131  139 1   
   139  132  136 1   
   140  140  141 1   
   141  140  149 1   
   142  141  142 1   
   143  141  144 1   
   144  141  150 1   
   145  142  143 2   
   146  142  162 1   
   147  144  145 1   
   148  144  151 1   
   149  144  152 1   
   150  145  146 1   
   151  145  153 1   
   152  145  154 1   
   153  146  147 1   
   154  146  155 1   
   155  146  156 1   
   156  147  148 1   
   157  147  157 1   
   158  147  158 1   
   159  148  159 1   
   160  148  160 1   
   161  148  161 1   
   162  162  163 1   
   163  162  171 1   
   164  163  164 1   
   165  163  166 1   
   166  163  172 1   
   167  164  165 2   
   168  164  177 1   
   169  166  167 1   
   170  166  173 1   
   171  166  174 1   
   172  167  168 1   
   173  167  175 1   
   174  167  176 1   
   175  168  169 1   
   176  168  170 1   
   177  177  178 1   
   178  177  182 1   
   179  178  179 1   
   180  178  180 1   
   181  178  181 1   
   182  184  185 1   
   183  184  186 1   
   184  187  188 1   
   185  187  189 1   
   186  190  191 1   
   187  190  192 1   
   188  193  194 1   
   189  193  195 1   
   190  196  197 1   
   191  196  198 1   
@<TRIPOS>SUBSTRUCTURE
     1 MOL         1 TEMP              0 ****  ****    0 ROOT
