@<TRIPOS>MOLECULE
MOL
  182   178     1     0     0
SMALL
resp


@<TRIPOS>ATOM
      1 C1         -7.3040    2.6440   -0.5170 c3        1 MOL     -0.261754
      2 C2         -8.1730    1.3980   -0.2580 c         1 MOL      0.733528
      3 O1         -8.0150    0.7030    0.7240 o         1 MOL     -0.557946
      4 H1         -6.2540    2.3530   -0.5580 hc        1 MOL      0.071216
      5 H2         -7.5920    3.0970   -1.4660 hc        1 MOL      0.071216
      6 H3         -7.4510    3.3640    0.2880 hc        1 MOL      0.071216
      7 N1         -9.0970    1.0210   -1.1800 n         1 MOL     -0.646447
      8 C3        -10.0130   -0.0690   -1.1600 c3        1 MOL      0.131337
      9 C4         -9.3470   -1.3300   -0.5780 c         1 MOL      0.643259
     10 O2         -9.9130   -2.0780    0.2240 o         1 MOL     -0.552485
     11 C5        -11.2800    0.3820   -0.4160 c3        1 MOL     -0.429886
     12 C6        -11.9060    1.6030   -1.1430 c         1 MOL      0.759078
     13 O3        -11.6110    2.7100   -0.7240 o         1 MOL     -0.688821
     14 O4        -12.6770    1.4670   -2.1960 o         1 MOL     -0.688821
     15 H4         -9.2980    1.7180   -1.8920 hn        1 MOL      0.360890
     16 H5        -10.2780   -0.3070   -2.1910 h1        1 MOL      0.043748
     17 H6        -10.9750    0.6060    0.6090 hc        1 MOL      0.114854
     18 H7        -11.9280   -0.4950   -0.3540 hc        1 MOL      0.114854
     19 N2         -8.1690   -1.6830   -1.1420 n         1 MOL     -0.659035
     20 C7         -7.3980   -2.9400   -0.8280 c3        1 MOL      0.367783
     21 C8         -6.0540   -2.6190   -0.2200 c         1 MOL      0.350985
     22 O5         -5.3090   -3.5150    0.0990 o         1 MOL     -0.513540
     23 C9         -7.2590   -3.6330   -2.1600 c3        1 MOL     -0.052236
     24 C10        -6.5840   -5.1020   -2.2200 c3        1 MOL     -0.030906
     25 C11        -7.2260   -6.0940   -1.2790 c3        1 MOL     -0.188783
     26 C12        -8.6830   -6.4020   -1.6120 c3        1 MOL      0.155301
     27 N3         -9.1880   -7.2230   -0.5280 n4        1 MOL     -0.292361
     28 H8         -7.8820   -1.2010   -1.9840 hn        1 MOL      0.273155
     29 H9         -7.9460   -3.5580   -0.1250 h1        1 MOL      0.024750
     30 H10        -6.5800   -3.0300   -2.7610 hc        1 MOL      0.009823
     31 H11        -8.2640   -3.7350   -2.5740 hc        1 MOL      0.009823
     32 H12        -5.5490   -5.0670   -1.8980 hc        1 MOL      0.058970
     33 H13        -6.6010   -5.4710   -3.2510 hc        1 MOL      0.058970
     34 H14        -7.1900   -5.6810   -0.2750 hc        1 MOL      0.074068
     35 H15        -6.7200   -7.0600   -1.2680 hc        1 MOL      0.074068
     36 H16        -8.6870   -7.0170   -2.5140 hx        1 MOL      0.041643
     37 H17        -9.3910   -5.5730   -1.7210 hx        1 MOL      0.041643
     38 H18        -8.5690   -7.9990   -0.3330 hn        1 MOL      0.271043
     39 H19        -9.3790   -6.7350    0.3460 hn        1 MOL      0.271043
     40 H20       -10.0910   -7.5890   -0.7780 hn        1 MOL      0.271043
     41 N4         -5.6890   -1.3230   -0.1030 n         1 MOL     -0.414488
     42 C13        -4.3500   -0.8520    0.3610 c3        1 MOL      0.447566
     43 C14        -4.4980    0.4360    1.1330 c         1 MOL      0.252874
     44 O6         -4.1210    1.4870    0.6150 o         1 MOL     -0.427969
     45 C15        -3.4680   -0.7970   -0.8910 c3        1 MOL     -0.359865
     46 C16        -2.0220   -0.5750   -0.4730 c         1 MOL      0.946489
     47 O7         -1.4440   -1.5850    0.0260 o         1 MOL     -0.813833
     48 O8         -1.4130    0.5160   -0.5570 o         1 MOL     -0.813833
     49 H21        -6.3170   -0.5880   -0.4100 hn        1 MOL      0.254826
     50 H22        -3.9260   -1.5630    1.0770 h1        1 MOL      0.018088
     51 H23        -3.7920   -0.0030   -1.5520 hc        1 MOL      0.065880
     52 H24        -3.5210   -1.7730   -1.3870 hc        1 MOL      0.065880
     53 N5         -5.1540    0.4060    2.2650 n         1 MOL     -0.397435
     54 C17        -5.5000    1.5930    3.0300 c3        1 MOL     -0.147327
     55 C18        -4.3560    2.3720    3.6700 c         1 MOL      0.526017
     56 O9         -4.5360    3.5440    3.9020 o         1 MOL     -0.530676
     57 H25        -5.5140   -0.4790    2.5910 hn        1 MOL      0.298949
     58 H26        -5.9500    1.3610    3.9940 h1        1 MOL      0.130940
     59 H27        -6.1190    2.3310    2.5190 h1        1 MOL      0.130940
     60 N6         -3.2450    1.7060    3.7780 n         1 MOL     -0.410396
     61 C19        -1.9410    2.3230    4.1600 c3        1 MOL      0.036945
     62 C20        -1.2430    3.3100    3.1510 c         1 MOL      0.484359
     63 O10        -0.5320    4.2130    3.5950 o         1 MOL     -0.554809
     64 C21        -0.9420    1.3350    4.8280 c3        1 MOL     -0.148572
     65 C22        -0.3350    0.3510    3.8310 c         1 MOL      0.583533
     66 N7          0.3120   -0.6850    4.2980 n         1 MOL     -0.652716
     67 O11        -0.4180    0.4240    2.6440 o         1 MOL     -0.577982
     68 H28        -3.3010    0.7200    3.6000 hn        1 MOL      0.276174
     69 H29        -2.1950    3.0240    4.9570 h1        1 MOL      0.073905
     70 H30        -1.4660    0.7890    5.6130 hc        1 MOL      0.065679
     71 H31        -0.1410    1.8520    5.3440 hc        1 MOL      0.065679
     72 H32         0.4190   -0.8250    5.2970 hn        1 MOL      0.309140
     73 H33         0.6610   -1.3490    3.6340 hn        1 MOL      0.309140
     74 N8         -1.5270    3.0820    1.8660 n         1 MOL     -0.147032
     75 C23        -1.0190    3.9130    0.7320 c3        1 MOL     -0.295317
     76 C24         0.3670    3.4380    0.3330 c         1 MOL      0.776153
     77 O12         1.0290    2.6080    0.9470 o         1 MOL     -0.610791
     78 H34        -1.9370    2.1740    1.6670 hn        1 MOL      0.165282
     79 H35        -0.8950    4.9470    1.0470 h1        1 MOL      0.146283
     80 H36        -1.8510    3.8980    0.0400 h1        1 MOL      0.146283
     81 N9          0.7930    3.8990   -0.8520 n         1 MOL     -0.678390
     82 C25         2.2060    3.9840   -1.1240 c3        1 MOL      0.040598
     83 C26         2.8080    2.6210   -1.4760 c         1 MOL      0.854050
     84 O13         2.0860    1.6320   -1.6310 o         1 MOL     -0.569784
     85 C27         2.3560    4.9020   -2.2760 c3        1 MOL     -0.284500
     86 C28         1.6000    6.1760   -2.1750 ca        1 MOL      0.078338
     87 C29         1.9170    7.0740   -1.1500 ca        1 MOL     -0.136311
     88 C30         0.6200    6.3930   -3.1510 ca        1 MOL     -0.136311
     89 C31         1.2970    8.3490   -1.1560 ca        1 MOL     -0.296140
     90 C32        -0.0720    7.6330   -3.0950 ca        1 MOL     -0.296140
     91 C33         0.2890    8.6260   -2.1080 ca        1 MOL      0.370392
     92 O14        -0.3340    9.8230   -2.1020 oh        1 MOL     -0.477803
     93 H37         0.1290    4.4720   -1.3530 hn        1 MOL      0.352716
     94 H38         2.6320    4.4450   -0.2310 h1        1 MOL      0.079660
     95 H39         1.9930    4.3560   -3.1500 hc        1 MOL      0.114234
     96 H40         3.4060    5.1160   -2.4420 hc        1 MOL      0.114234
     97 H41         2.5300    6.7670   -0.3160 ha        1 MOL      0.141388
     98 H42         0.3700    5.5960   -3.8230 ha        1 MOL      0.141388
     99 H43         1.4640    9.0570   -0.3580 ha        1 MOL      0.172006
    100 H44        -0.8720    7.7340   -3.8060 ha        1 MOL      0.172006
    101 H45        -0.0810   10.4050   -1.3870 ho        1 MOL      0.375062
    102 N10         4.0810    2.4960   -1.5620 n         1 MOL     -0.951126
    103 C34         4.8840    1.2830   -1.7040 c3        1 MOL      0.433837
    104 C35         5.7910    0.9220   -0.4520 c         1 MOL      0.327169
    105 O15         5.8700   -0.1700   -0.0370 o         1 MOL     -0.355811
    106 C36         5.6400    1.2900   -3.0710 c3        1 MOL     -0.034834
    107 C37         4.7100    1.5170   -4.2480 c3        1 MOL     -0.126588
    108 C38         6.3900   -0.0090   -3.2040 c3        1 MOL     -0.036691
    109 C39         3.6660    0.4220   -4.5090 c3        1 MOL     -0.299994
    110 H46         4.7010    3.2890   -1.5060 hn        1 MOL      0.358288
    111 H47         4.1040    0.5250   -1.7990 h1        1 MOL     -0.066800
    112 H48         6.3770    2.1010   -3.0410 hc        1 MOL     -0.021892
    113 H49         5.3140    1.5880   -5.1580 hc        1 MOL      0.086645
    114 H50         4.0470    2.3740   -4.2270 hc        1 MOL      0.086645
    115 H51         5.6980   -0.8330   -3.0030 hc        1 MOL      0.027456
    116 H52         6.8980   -0.2330   -4.1350 hc        1 MOL      0.027456
    117 H53         7.2210    0.0560   -2.4920 hc        1 MOL      0.027456
    118 H54         4.2320   -0.4770   -4.7720 hc        1 MOL      0.096880
    119 H55         2.8330    0.3500   -3.8030 hc        1 MOL      0.096880
    120 H56         3.1230    0.6440   -5.4300 hc        1 MOL      0.096880
    121 N11         6.6900    1.8270   -0.0290 n         1 MOL     -0.287407
    122 C40         7.5080    1.6800    1.1690 c3        1 MOL     -0.117840
    123 C41         8.4980    0.4940    1.0910 c         1 MOL      0.608499
    124 O16         8.9850    0.0520    2.1730 o         1 MOL     -0.534089
    125 C42         8.3010    2.9620    1.5810 c3        1 MOL      0.120739
    126 O17         9.2550    3.2600    0.5670 oh        1 MOL     -0.619489
    127 H57         6.5000    2.7450   -0.4050 hn        1 MOL      0.273570
    128 H58         6.9190    1.4690    2.0670 h1        1 MOL      0.092226
    129 H59         8.7850    2.8680    2.5540 h1        1 MOL      0.052860
    130 H60         7.5410    3.7480    1.6390 h1        1 MOL      0.052860
    131 H61         9.7710    3.9920    0.8890 ho        1 MOL      0.427284
    132 N12         8.6860   -0.0740   -0.1150 n         1 MOL     -0.403297
    133 C43         9.4800   -1.3350   -0.3520 c3        1 MOL      0.282541
    134 C44         8.9030   -2.5840    0.2820 c         1 MOL      0.448989
    135 O18         9.6990   -3.4160    0.7340 o         1 MOL     -0.511123
    136 C45        10.9630   -1.1160   -0.0870 c3        1 MOL     -0.312044
    137 H62         8.1690    0.3210   -0.8820 hn        1 MOL      0.206147
    138 H63         9.4510   -1.4930   -1.4270 h1        1 MOL      0.026102
    139 H64        11.4410   -1.9400   -0.6100 hc        1 MOL      0.090613
    140 H65        11.3370   -0.1820   -0.4910 hc        1 MOL      0.090613
    141 H66        11.2630   -1.0830    0.9700 hc        1 MOL      0.090613
    142 N13         7.5710   -2.6330    0.3530 n         1 MOL     -0.374422
    143 C46         6.8180   -3.6280    0.9710 c3        1 MOL      0.273610
    144 C47         5.5580   -3.9710    0.1600 c         1 MOL      0.429375
    145 O19         5.2850   -3.3140   -0.8900 o         1 MOL     -0.437929
    146 C48         6.4070   -3.1130    2.3410 c3        1 MOL     -0.236898
    147 H67         7.0440   -1.8870   -0.0690 hn        1 MOL      0.058438
    148 H68         7.4920   -4.4640    1.1740 h1        1 MOL      0.010368
    149 H69         5.8660   -3.8760    2.8880 hc        1 MOL      0.068575
    150 H70         7.2740   -2.7050    2.8560 hc        1 MOL      0.068575
    151 H71         5.6810   -2.3250    2.1080 hc        1 MOL      0.068575
    152 N14         4.9520   -5.0570    0.5580 n         1 MOL     -0.502831
    153 C49         3.7160   -5.5900    0.0160 c3        1 MOL     -0.080813
    154 C50         3.8510   -5.9870   -1.5000 c         1 MOL      0.411130
    155 O20         2.9350   -5.8350   -2.2970 o         1 MOL     -0.492548
    156 C51         2.4230   -4.8430    0.3720 c3        1 MOL      0.155889
    157 C52         2.3780   -4.5150    1.9030 c3        1 MOL     -0.426652
    158 C53         1.1640   -3.6260    2.2290 c         1 MOL      0.757936
    159 O21         1.1530   -2.3860    2.1100 o         1 MOL     -0.664030
    160 O22         0.1780   -4.0720    2.7860 o         1 MOL     -0.664030
    161 H72         5.3120   -5.4940    1.3940 hn        1 MOL      0.347178
    162 H73         3.5320   -6.5320    0.5450 h1        1 MOL      0.105331
    163 H74         1.5200   -5.4380    0.2240 hc        1 MOL      0.034630
    164 H75         2.3220   -3.9260   -0.2200 hc        1 MOL      0.034630
    165 H76         3.3380   -4.0820    2.1690 hc        1 MOL      0.077207
    166 H77         2.3260   -5.4940    2.3840 hc        1 MOL      0.077207
    167 N15         5.0510   -6.3440   -1.9150 n         1 MOL     -0.302494
    168 C54         5.3660   -6.5210   -3.3320 c3        1 MOL     -0.044148
    169 H78         5.7730   -7.5200   -3.4910 h1        1 MOL      0.063319
    170 H79         4.4590   -6.4010   -3.9240 h1        1 MOL      0.063319
    171 H80         6.1010   -5.7760   -3.6370 h1        1 MOL      0.063319
    172 H81         5.8430   -6.2840   -1.2910 hn        1 MOL      0.229891
    173 Ca1         0.9070   -0.1480    0.4520 Ca        1 MOL      1.724220
    174 O23         0.9440   -1.0630   -2.0240 oh        1 MOL     -0.858130
    175 H82         0.5250   -0.8110   -2.8470 ho        1 MOL      0.419549
    176 H83         1.8610   -1.2220   -2.2620 ho        1 MOL      0.419549
    177 O24         2.6750    0.6640    2.2340 oh        1 MOL     -0.858130
    178 H84         2.8960    1.5820    2.3620 ho        1 MOL      0.419549
    179 H85         3.2780    0.1900    2.7960 ho        1 MOL      0.419549
    180 O25         3.3440   -1.3620   -0.1050 oh        1 MOL     -0.858130
    181 H86         4.1070   -0.8420    0.1530 ho        1 MOL      0.419549
    182 H87         3.6980   -2.0580   -0.6530 ho        1 MOL      0.419549
@<TRIPOS>BOND
     1    1    2 1   
     2    1    4 1   
     3    1    5 1   
     4    1    6 1   
     5    2    3 2   
     6    2    7 1   
     7    7    8 1   
     8    7   15 1   
     9    8    9 1   
    10    8   11 1   
    11    8   16 1   
    12    9   10 2   
    13    9   19 1   
    14   11   12 1   
    15   11   17 1   
    16   11   18 1   
    17   12   13 1   
    18   12   14 1   
    19   19   20 1   
    20   19   28 1   
    21   20   21 1   
    22   20   23 1   
    23   20   29 1   
    24   21   22 2   
    25   21   41 1   
    26   23   24 1   
    27   23   30 1   
    28   23   31 1   
    29   24   25 1   
    30   24   32 1   
    31   24   33 1   
    32   25   26 1   
    33   25   34 1   
    34   25   35 1   
    35   26   27 1   
    36   26   36 1   
    37   26   37 1   
    38   27   38 1   
    39   27   39 1   
    40   27   40 1   
    41   41   42 1   
    42   41   49 1   
    43   42   43 1   
    44   42   45 1   
    45   42   50 1   
    46   43   44 2   
    47   43   53 1   
    48   45   46 1   
    49   45   51 1   
    50   45   52 1   
    51   46   47 1   
    52   46   48 1   
    53   53   54 1   
    54   53   57 1   
    55   54   55 1   
    56   54   58 1   
    57   54   59 1   
    58   55   56 2   
    59   55   60 1   
    60   60   61 1   
    61   60   68 1   
    62   61   62 1   
    63   61   64 1   
    64   61   69 1   
    65   62   63 2   
    66   62   74 1   
    67   64   65 1   
    68   64   70 1   
    69   64   71 1   
    70   65   66 1   
    71   65   67 2   
    72   66   72 1   
    73   66   73 1   
    74   74   75 1   
    75   74   78 1   
    76   75   76 1   
    77   75   79 1   
    78   75   80 1   
    79   76   77 2   
    80   76   81 1   
    81   81   82 1   
    82   81   93 1   
    83   82   83 1   
    84   82   85 1   
    85   82   94 1   
    86   83   84 2   
    87   83  102 1   
    88   85   86 1   
    89   85   95 1   
    90   85   96 1   
    91   86   87 ar  
    92   86   88 ar  
    93   87   89 ar  
    94   87   97 1   
    95   88   90 ar  
    96   88   98 1   
    97   89   91 ar  
    98   89   99 1   
    99   90   91 ar  
   100   90  100 1   
   101   91   92 1   
   102   92  101 1   
   103  102  103 1   
   104  102  110 1   
   105  103  104 1   
   106  103  106 1   
   107  103  111 1   
   108  104  105 2   
   109  104  121 1   
   110  106  107 1   
   111  106  108 1   
   112  106  112 1   
   113  107  109 1   
   114  107  113 1   
   115  107  114 1   
   116  108  115 1   
   117  108  116 1   
   118  108  117 1   
   119  109  118 1   
   120  109  119 1   
   121  109  120 1   
   122  121  122 1   
   123  121  127 1   
   124  122  123 1   
   125  122  125 1   
   126  122  128 1   
   127  123  124 2   
   128  123  132 1   
   129  125  126 1   
   130  125  129 1   
   131  125  130 1   
   132  126  131 1   
   133  132  133 1   
   134  132  137 1   
   135  133  134 1   
   136  133  136 1   
   137  133  138 1   
   138  134  135 2   
   139  134  142 1   
   140  136  139 1   
   141  136  140 1   
   142  136  141 1   
   143  142  143 1   
   144  142  147 1   
   145  143  144 1   
   146  143  146 1   
   147  143  148 1   
   148  144  145 2   
   149  144  152 1   
   150  146  149 1   
   151  146  150 1   
   152  146  151 1   
   153  152  153 1   
   154  152  161 1   
   155  153  154 1   
   156  153  156 1   
   157  153  162 1   
   158  154  155 2   
   159  154  167 1   
   160  156  157 1   
   161  156  163 1   
   162  156  164 1   
   163  157  158 1   
   164  157  165 1   
   165  157  166 1   
   166  158  159 1   
   167  158  160 1   
   168  167  168 1   
   169  167  172 1   
   170  168  169 1   
   171  168  170 1   
   172  168  171 1   
   173  174  175 1   
   174  174  176 1   
   175  177  178 1   
   176  177  179 1   
   177  180  181 1   
   178  180  182 1   
@<TRIPOS>SUBSTRUCTURE
     1 MOL         1 TEMP              0 ****  ****    0 ROOT
