@<TRIPOS>MOLECULE
MOL
  185   180     1     0     0
SMALL
resp


@<TRIPOS>ATOM
      1 C1          5.7390    1.2290    3.0870 c3        1 MOL     -0.389034
      2 C2          6.4690    1.3290    1.7990 c         1 MOL      0.670445
      3 O1          5.8660    1.0990    0.7340 o         1 MOL     -0.495153
      4 H1          4.7900    1.7610    3.0090 hc        1 MOL      0.104378
      5 H2          5.5490    0.1810    3.3180 hc        1 MOL      0.104378
      6 H3          6.3400    1.6740    3.8800 hc        1 MOL      0.104378
      7 N1          7.7650    1.4920    1.8060 n         1 MOL     -0.683200
      8 C3          8.5010    1.6720    0.5310 c3        1 MOL      0.354789
      9 C4          8.3360    0.4950   -0.5130 c         1 MOL      0.357192
     10 O2          8.3160    0.7180   -1.7320 o         1 MOL     -0.485649
     11 C5          8.1510    3.0510   -0.1530 c3        1 MOL     -0.534850
     12 C6          8.2280    4.2500    0.8100 c         1 MOL      0.813585
     13 O3          7.7030    5.3860    0.5050 o         1 MOL     -0.686564
     14 O4          8.9190    4.2050    1.8980 o         1 MOL     -0.686564
     15 H4          8.2420    1.7200    2.6630 hn        1 MOL      0.350028
     16 H5          9.5770    1.6570    0.7250 h1        1 MOL      0.014751
     17 H6          7.1560    2.9220   -0.5860 hc        1 MOL      0.159988
     18 H7          8.8240    3.2660   -0.9770 hc        1 MOL      0.159988
     19 N2          8.1620   -0.7530   -0.0570 n         1 MOL     -0.486735
     20 C7          7.9120   -1.9600   -0.8710 c3        1 MOL      0.185618
     21 C8          6.4100   -2.4040   -0.9440 c         1 MOL      0.526960
     22 O5          6.1710   -3.4690   -1.4320 o         1 MOL     -0.558467
     23 C9          8.8390   -3.0000   -0.1940 c3        1 MOL     -0.051609
     24 C10        10.3020   -2.5830   -0.0340 c3        1 MOL      0.337061
     25 C11        11.1980   -3.6830    0.6700 c3        1 MOL     -0.352797
     26 C12        12.4540   -3.0900    1.3430 c3        1 MOL      0.233014
     27 N3         13.2800   -4.1640    1.8720 n4        1 MOL     -0.328165
     28 H8          8.2940   -0.8890    0.9340 hn        1 MOL      0.255177
     29 H9          8.3620   -1.8610   -1.8570 h1        1 MOL      0.075266
     30 H10         8.7100   -3.9080   -0.7900 hc        1 MOL     -0.011754
     31 H11         8.4590   -3.1870    0.8090 hc        1 MOL     -0.011754
     32 H12        10.4150   -1.7070    0.6150 hc        1 MOL     -0.052896
     33 H13        10.7390   -2.3080   -0.9960 hc        1 MOL     -0.052896
     34 H14        11.3520   -4.3960   -0.1410 hc        1 MOL      0.089655
     35 H15        10.6790   -4.1800    1.4910 hc        1 MOL      0.089655
     36 H16        12.2430   -2.4660    2.2050 hx        1 MOL      0.037892
     37 H17        12.9700   -2.4000    0.6790 hx        1 MOL      0.037892
     38 H18        12.8240   -4.5590    2.6830 hn        1 MOL      0.290053
     39 H19        13.3380   -4.9120    1.1910 hn        1 MOL      0.290053
     40 H20        14.1960   -3.8810    2.1890 hn        1 MOL      0.290053
     41 N4          5.4830   -1.5330   -0.5790 n         1 MOL     -0.469565
     42 C13         4.1260   -1.9270   -0.3200 c3        1 MOL     -0.080175
     43 C14         3.4400   -2.5050   -1.6130 c         1 MOL      0.751430
     44 O6          3.3010   -1.8440   -2.7010 o         1 MOL     -0.564824
     45 C15         3.3830   -0.7210    0.1750 c3        1 MOL     -0.136201
     46 C16         1.9550   -1.0070    0.4920 c         1 MOL      0.519412
     47 O7          1.0450   -0.9960   -0.3820 o         1 MOL     -0.699786
     48 O8          1.6300   -1.4150    1.6330 o         1 MOL     -0.699786
     49 H21         5.7830   -0.6640   -0.1470 hn        1 MOL      0.313301
     50 H22         4.1470   -2.6860    0.4640 h1        1 MOL      0.067552
     51 H23         3.3820    0.0900   -0.5510 hc        1 MOL      0.125986
     52 H24         3.8670   -0.3520    1.0810 hc        1 MOL      0.125986
     53 N5          2.8250   -3.6330   -1.3600 n         1 MOL     -0.436757
     54 C17         2.1910   -4.4850   -2.3730 c3        1 MOL     -0.108555
     55 C18         0.9600   -3.9600   -3.1130 c         1 MOL      0.545971
     56 O9          0.4680   -4.6180   -4.0180 o         1 MOL     -0.556265
     57 H25         2.8010   -4.0220   -0.4370 hn        1 MOL      0.304224
     58 H26         1.8630   -5.4300   -1.9430 h1        1 MOL      0.097977
     59 H27         2.9260   -4.8280   -3.1020 h1        1 MOL      0.097977
     60 N6          0.3880   -2.7950   -2.6890 n         1 MOL     -0.234882
     61 C19        -0.5800   -1.9830   -3.5420 c3        1 MOL     -0.055023
     62 C20        -0.2800   -0.4270   -3.5530 c         1 MOL      0.400307
     63 O10        -1.0830    0.3240   -4.1190 o         1 MOL     -0.514650
     64 C21        -2.0650   -2.2910   -3.2020 c3        1 MOL     -0.211883
     65 C22        -2.6490   -1.4130   -2.1860 c         1 MOL      0.368831
     66 N7         -3.9200   -1.1240   -2.1050 n         1 MOL     -0.515326
     67 O11        -1.9800   -1.1350   -1.1820 o         1 MOL     -0.413084
     68 H28         0.7070   -2.3880   -1.8250 hn        1 MOL      0.100984
     69 H29        -0.4390   -2.3330   -4.5620 h1        1 MOL      0.130350
     70 H30        -2.2730   -3.3520   -3.1000 hc        1 MOL      0.112170
     71 H31        -2.5690   -2.0510   -4.1370 hc        1 MOL      0.112170
     72 H32        -4.4800   -1.4010   -2.9010 hn        1 MOL      0.285098
     73 H33        -4.2270   -0.5350   -1.3540 hn        1 MOL      0.285098
     74 N8          0.8760   -0.0410   -3.0940 n         1 MOL      0.007328
     75 C23         1.5670    1.2500   -3.3710 c3        1 MOL     -0.363747
     76 C24         1.2140    2.2870   -2.2910 c         1 MOL      0.561089
     77 O12         1.4430    3.4710   -2.4550 o         1 MOL     -0.508846
     78 H34         1.5060   -0.7140   -2.6810 hn        1 MOL      0.079959
     79 H35         1.2630    1.6090   -4.3520 h1        1 MOL      0.166807
     80 H36         2.6440    1.0780   -3.3460 h1        1 MOL      0.166807
     81 N9          0.6630    1.8060   -1.1450 n         1 MOL     -0.144135
     82 C25         0.1860    2.6510   -0.0390 c3        1 MOL     -0.149213
     83 C26        -1.2130    2.1790    0.4760 c         1 MOL      0.342806
     84 O13        -1.3550    0.9830    0.7000 o         1 MOL     -0.331791
     85 C27         1.1280    2.7310    1.1240 c3        1 MOL      0.062444
     86 C28         2.2410    3.7830    0.9140 ca        1 MOL      0.128774
     87 C29         2.1060    4.9690    1.6260 ca        1 MOL     -0.312197
     88 C30         3.2970    3.4910    0.0560 ca        1 MOL     -0.312197
     89 C31         3.1030    5.9160    1.5470 ca        1 MOL     -0.077061
     90 C32         4.3470    4.4320   -0.0010 ca        1 MOL     -0.077061
     91 C33         4.3050    5.5960    0.8290 ca        1 MOL      0.205581
     92 O14         5.2990    6.5120    0.8870 oh        1 MOL     -0.506279
     93 H37         0.1770    0.9150   -1.1430 hn        1 MOL      0.116644
     94 H38         0.0630    3.6650   -0.4040 h1        1 MOL      0.072117
     95 H39         1.6130    1.7700    1.2890 hc        1 MOL     -0.002529
     96 H40         0.6720    2.9610    2.0830 hc        1 MOL     -0.002529
     97 H41         1.2320    5.2380    2.1840 ha        1 MOL      0.143599
     98 H42         3.4140    2.6290   -0.5840 ha        1 MOL      0.143599
     99 H43         2.9430    6.8100    2.1260 ha        1 MOL      0.092761
    100 H44         5.1800    4.3400   -0.6840 ha        1 MOL      0.092761
    101 H45         6.0780    6.0950    0.5080 ho        1 MOL      0.411783
    102 N10        -2.1240    3.1380    0.8890 n         1 MOL     -0.355031
    103 C34        -3.5480    2.7840    1.2560 c3        1 MOL     -0.031850
    104 C35        -4.4010    2.1870    0.0490 c         1 MOL      0.147823
    105 O15        -5.1190    1.1350    0.0790 o         1 MOL     -0.384020
    106 C36        -4.3260    3.9010    1.9450 c3        1 MOL     -0.008334
    107 C37        -3.7930    4.1100    3.3240 c3        1 MOL      0.061961
    108 C38        -5.8640    3.7110    1.9590 c3        1 MOL     -0.396564
    109 C39        -3.8780    3.0190    4.3840 c3        1 MOL     -0.097666
    110 H46        -1.8150    4.0880    0.7570 hn        1 MOL      0.269846
    111 H47        -3.3700    1.9410    1.9230 h1        1 MOL      0.140145
    112 H48        -4.1690    4.7510    1.2810 hc        1 MOL      0.027303
    113 H49        -4.3320    4.9710    3.7240 hc        1 MOL      0.002514
    114 H50        -2.7850    4.5020    3.2750 hc        1 MOL      0.002514
    115 H51        -6.1870    2.7650    2.4100 hc        1 MOL      0.127308
    116 H52        -6.2650    4.4990    2.5960 hc        1 MOL      0.127308
    117 H53        -6.2930    3.8050    0.9620 hc        1 MOL      0.127308
    118 H54        -3.1800    3.2380    5.1950 hc        1 MOL      0.036953
    119 H55        -4.8650    3.0310    4.8390 hc        1 MOL      0.036953
    120 H56        -3.6080    2.0220    4.0370 hc        1 MOL      0.036953
    121 N11        -4.3550    2.8510   -1.0520 n         1 MOL      0.024846
    122 C40        -4.8100    2.4390   -2.4510 c3        1 MOL     -0.336139
    123 C41        -6.2990    2.2260   -2.4980 c         1 MOL      0.417404
    124 O16        -6.8090    1.6680   -3.4560 o         1 MOL     -0.495804
    125 C42        -4.3670    3.3760   -3.5750 c3        1 MOL      0.278641
    126 O17        -2.9950    3.7810   -3.5070 oh        1 MOL     -0.564504
    127 H57        -3.9530    3.7790   -1.0660 hn        1 MOL      0.197332
    128 H58        -4.3120    1.4930   -2.6640 h1        1 MOL      0.201973
    129 H59        -5.0580    4.2120   -3.5300 h1        1 MOL      0.043429
    130 H60        -4.5670    2.8540   -4.5110 h1        1 MOL      0.043429
    131 H61        -2.8610    4.2720   -2.6900 ho        1 MOL      0.358578
    132 N12        -7.0380    2.7720   -1.5130 n         1 MOL     -0.173383
    133 C43        -8.4830    2.5490   -1.2530 c3        1 MOL      0.072869
    134 C44        -8.8190    1.0750   -0.9950 c         1 MOL      0.585729
    135 O18        -9.8490    0.6200   -1.3800 o         1 MOL     -0.523147
    136 C45        -9.3480    3.3870   -2.1640 c3        1 MOL     -0.325860
    137 H62        -6.5740    3.3440   -0.8210 hn        1 MOL      0.129223
    138 H63        -8.5920    2.8570   -0.2200 h1        1 MOL      0.039210
    139 H64       -10.4350    3.4540   -2.1280 hc        1 MOL      0.100165
    140 H65        -9.0050    4.4270   -2.2470 hc        1 MOL      0.100165
    141 H66        -9.2670    2.9920   -3.1800 hc        1 MOL      0.100165
    142 N13        -7.8500    0.3450   -0.3790 n         1 MOL     -0.540298
    143 C46        -7.9300   -1.1320   -0.2450 c3        1 MOL      0.220085
    144 C47        -7.1000   -1.8130    0.8480 c         1 MOL      0.441948
    145 O19        -6.2090   -1.2090    1.4000 o         1 MOL     -0.527536
    146 C48        -7.4290   -1.8030   -1.5830 c3        1 MOL     -0.149928
    147 H67        -7.0430    0.8600   -0.0600 hn        1 MOL      0.234299
    148 H68        -8.9890   -1.3840   -0.1690 h1        1 MOL      0.010402
    149 H69        -6.3330   -1.8240   -1.5800 hc        1 MOL      0.056844
    150 H70        -7.7710   -2.8350   -1.6560 hc        1 MOL      0.056844
    151 H71        -7.7560   -1.2800   -2.4810 hc        1 MOL      0.056844
    152 N14        -7.3190   -3.0650    1.0980 n         1 MOL     -0.364542
    153 C49        -6.8450   -3.8020    2.2910 c3        1 MOL     -0.029802
    154 C50        -7.1910   -3.1130    3.5790 c         1 MOL      0.521824
    155 O20        -6.5240   -3.3020    4.6040 o         1 MOL     -0.516303
    156 C51        -5.3270   -4.2270    2.2280 c3        1 MOL     -0.018363
    157 C52        -4.8480   -4.6640    0.8660 c3        1 MOL     -0.010704
    158 C53        -3.3240   -4.5870    0.6860 c         1 MOL      0.697234
    159 O21        -2.6470   -5.6120    0.4330 o         1 MOL     -0.694392
    160 O22        -2.7880   -3.4240    0.7770 o         1 MOL     -0.694392
    161 H72        -8.2090   -3.3810    0.7350 hn        1 MOL      0.261076
    162 H73        -7.5510   -4.6180    2.4030 h1        1 MOL      0.065227
    163 H74        -5.1750   -5.0250    2.9470 hc        1 MOL      0.026718
    164 H75        -4.7100   -3.4040    2.5910 hc        1 MOL      0.026718
    165 H76        -5.2720   -4.0090    0.1080 hc        1 MOL     -0.025012
    166 H77        -5.0620   -5.6980    0.6090 hc        1 MOL     -0.025012
    167 N15        -8.3140   -2.3800    3.5930 n         1 MOL     -0.353205
    168 C54        -8.7050   -1.3810    4.6490 c3        1 MOL     -0.111147
    169 H78        -9.5330   -1.7780    5.2350 h1        1 MOL      0.086087
    170 H79        -7.8540   -1.1930    5.3040 h1        1 MOL      0.086087
    171 H80        -9.0100   -0.4500    4.1730 h1        1 MOL      0.086087
    172 H81        -8.9610   -2.4260    2.8220 hn        1 MOL      0.233781
    173 Ca1        -1.0560   -1.6180    1.2060 Ca        1 MOL      1.765266
    174 O23        -0.8800   -3.5100    3.2570 oh        1 MOL     -0.911299
    175 H82        -1.0910   -4.4440    3.2110 ho        1 MOL      0.438402
    176 H83        -0.3230   -3.4340    4.0320 ho        1 MOL      0.438402
    177 O24        -0.0720   -4.1300    0.2690 oh        1 MOL     -0.911299
    178 H84         0.3400   -4.9090    0.6410 ho        1 MOL      0.438402
    179 H85        -0.9720   -4.4000    0.0650 ho        1 MOL      0.438402
    180 O25        -3.6190   -0.7650    1.4090 oh        1 MOL     -0.911299
    181 H86        -4.3820   -0.2010    1.3390 ho        1 MOL      0.438402
    182 H87        -3.9660   -1.6570    1.4200 ho        1 MOL      0.438402
    183 O26        -0.7090   -0.1800    3.4200 oh        1 MOL     -0.911299
    184 H88        -0.7760    0.7350    3.7060 ho        1 MOL      0.438402
    185 H89        -0.1560   -0.5940    4.0750 ho        1 MOL      0.438402
@<TRIPOS>BOND
     1    1    2 1   
     2    1    4 1   
     3    1    5 1   
     4    1    6 1   
     5    2    3 2   
     6    2    7 1   
     7    7    8 1   
     8    7   15 1   
     9    8    9 1   
    10    8   11 1   
    11    8   16 1   
    12    9   10 2   
    13    9   19 1   
    14   11   12 1   
    15   11   17 1   
    16   11   18 1   
    17   12   13 1   
    18   12   14 1   
    19   19   20 1   
    20   19   28 1   
    21   20   21 1   
    22   20   23 1   
    23   20   29 1   
    24   21   22 2   
    25   21   41 1   
    26   23   24 1   
    27   23   30 1   
    28   23   31 1   
    29   24   25 1   
    30   24   32 1   
    31   24   33 1   
    32   25   26 1   
    33   25   34 1   
    34   25   35 1   
    35   26   27 1   
    36   26   36 1   
    37   26   37 1   
    38   27   38 1   
    39   27   39 1   
    40   27   40 1   
    41   41   42 1   
    42   41   49 1   
    43   42   43 1   
    44   42   45 1   
    45   42   50 1   
    46   43   44 2   
    47   43   53 1   
    48   45   46 1   
    49   45   51 1   
    50   45   52 1   
    51   46   47 1   
    52   46   48 1   
    53   53   54 1   
    54   53   57 1   
    55   54   55 1   
    56   54   58 1   
    57   54   59 1   
    58   55   56 2   
    59   55   60 1   
    60   60   61 1   
    61   60   68 1   
    62   61   62 1   
    63   61   64 1   
    64   61   69 1   
    65   62   63 2   
    66   62   74 1   
    67   64   65 1   
    68   64   70 1   
    69   64   71 1   
    70   65   66 1   
    71   65   67 2   
    72   66   72 1   
    73   66   73 1   
    74   74   75 1   
    75   74   78 1   
    76   75   76 1   
    77   75   79 1   
    78   75   80 1   
    79   76   77 2   
    80   76   81 1   
    81   81   82 1   
    82   81   93 1   
    83   82   83 1   
    84   82   85 1   
    85   82   94 1   
    86   83   84 2   
    87   83  102 1   
    88   85   86 1   
    89   85   95 1   
    90   85   96 1   
    91   86   87 ar  
    92   86   88 ar  
    93   87   89 ar  
    94   87   97 1   
    95   88   90 ar  
    96   88   98 1   
    97   89   91 ar  
    98   89   99 1   
    99   90   91 ar  
   100   90  100 1   
   101   91   92 1   
   102   92  101 1   
   103  102  103 1   
   104  102  110 1   
   105  103  104 1   
   106  103  106 1   
   107  103  111 1   
   108  104  105 2   
   109  104  121 1   
   110  106  107 1   
   111  106  108 1   
   112  106  112 1   
   113  107  109 1   
   114  107  113 1   
   115  107  114 1   
   116  108  115 1   
   117  108  116 1   
   118  108  117 1   
   119  109  118 1   
   120  109  119 1   
   121  109  120 1   
   122  121  122 1   
   123  121  127 1   
   124  122  123 1   
   125  122  125 1   
   126  122  128 1   
   127  123  124 2   
   128  123  132 1   
   129  125  126 1   
   130  125  129 1   
   131  125  130 1   
   132  126  131 1   
   133  132  133 1   
   134  132  137 1   
   135  133  134 1   
   136  133  136 1   
   137  133  138 1   
   138  134  135 2   
   139  134  142 1   
   140  136  139 1   
   141  136  140 1   
   142  136  141 1   
   143  142  143 1   
   144  142  147 1   
   145  143  144 1   
   146  143  146 1   
   147  143  148 1   
   148  144  145 2   
   149  144  152 1   
   150  146  149 1   
   151  146  150 1   
   152  146  151 1   
   153  152  153 1   
   154  152  161 1   
   155  153  154 1   
   156  153  156 1   
   157  153  162 1   
   158  154  155 2   
   159  154  167 1   
   160  156  157 1   
   161  156  163 1   
   162  156  164 1   
   163  157  158 1   
   164  157  165 1   
   165  157  166 1   
   166  158  159 1   
   167  158  160 1   
   168  167  168 1   
   169  167  172 1   
   170  168  169 1   
   171  168  170 1   
   172  168  171 1   
   173  174  175 1   
   174  174  176 1   
   175  177  178 1   
   176  177  179 1   
   177  180  181 1   
   178  180  182 1   
   179  183  184 1   
   180  183  185 1   
@<TRIPOS>SUBSTRUCTURE
     1 MOL         1 TEMP              0 ****  ****    0 ROOT
