@<TRIPOS>MOLECULE
MOL
  181   177     1     0     0
SMALL
resp


@<TRIPOS>ATOM
      1 C1          5.9020   -5.8140    4.5600 c3        1 MOL     -0.331085
      2 C2          5.3740   -4.4770    4.0720 c         1 MOL      0.526800
      3 O1          4.4160   -3.8910    4.5860 o         1 MOL     -0.540091
      4 H1          6.9870   -5.7660    4.6470 hc        1 MOL      0.094994
      5 H2          5.4700   -6.0410    5.5350 hc        1 MOL      0.094994
      6 H3          5.6300   -6.5950    3.8500 hc        1 MOL      0.094994
      7 N1          6.0780   -3.7610    3.1960 n         1 MOL     -0.173594
      8 C3          7.1380   -4.2080    2.3220 c3        1 MOL     -0.260045
      9 C4          6.7810   -4.0460    0.8090 c         1 MOL      0.684847
     10 O2          6.2310   -3.0150    0.4350 o         1 MOL     -0.638995
     11 C5          8.5220   -3.5110    2.6800 c3        1 MOL     -0.067687
     12 C6          8.4720   -1.9820    2.6310 c         1 MOL      0.656279
     13 O3          9.4650   -1.3190    3.0800 o         1 MOL     -0.676322
     14 O4          7.3300   -1.4090    2.3560 o         1 MOL     -0.676322
     15 H4          5.6890   -2.8220    3.1170 hn        1 MOL      0.184596
     16 H5          7.2110   -5.2760    2.5040 h1        1 MOL      0.057761
     17 H6          9.2520   -3.9010    1.9700 hc        1 MOL      0.043583
     18 H7          8.7560   -3.7620    3.7100 hc        1 MOL      0.043583
     19 N2          7.2890   -5.0120    0.0080 n         1 MOL     -0.608718
     20 C7          7.2140   -5.2910   -1.5290 c3        1 MOL      0.271016
     21 C8          7.7090   -4.1290   -2.4350 c         1 MOL      0.286759
     22 O5          8.3710   -4.3430   -3.5080 o         1 MOL     -0.544929
     23 C9          5.7990   -5.8020   -1.7730 c3        1 MOL     -0.336600
     24 H8          7.7430   -5.7390    0.5470 hn        1 MOL      0.342332
     25 H9          7.8640   -6.1570   -1.6850 h1        1 MOL      0.038294
     26 H10         5.7280   -6.6830   -1.1350 hc        1 MOL      0.111737
     27 H11         5.0670   -5.0510   -1.4730 hc        1 MOL      0.111737
     28 H12         5.6260   -6.0770   -2.8170 hc        1 MOL      0.111737
     29 N3          7.5320   -2.8520   -2.0640 n         1 MOL     -0.077891
     30 C10         7.8420   -1.6120   -2.8000 c3        1 MOL     -0.014713
     31 C11         8.3190   -0.5040   -1.8790 c         1 MOL      0.324838
     32 O6          7.9000   -0.3230   -0.7240 o         1 MOL     -0.500593
     33 C12         6.6150   -1.2100   -3.5760 c3        1 MOL      0.002809
     34 C13         5.3260   -1.1490   -2.8060 c         1 MOL      0.650062
     35 O7          5.2870   -1.0090   -1.5650 o         1 MOL     -0.674067
     36 O8          4.2700   -1.3180   -3.4390 o         1 MOL     -0.674067
     37 H13         7.0890   -2.7880   -1.1570 hn        1 MOL      0.171152
     38 H14         8.6860   -1.7670   -3.4670 h1        1 MOL      0.052380
     39 H15         6.4760   -1.9670   -4.3460 hc        1 MOL      0.006239
     40 H16         6.8300   -0.2490   -4.0450 hc        1 MOL      0.006239
     41 N4          9.2130    0.3830   -2.3450 n         1 MOL     -0.162154
     42 C14         9.8090    1.5290   -1.6380 c3        1 MOL     -0.534099
     43 C15         8.8300    2.7470   -1.6050 c         1 MOL      0.621844
     44 O9          9.2760    3.8490   -1.2240 o         1 MOL     -0.542825
     45 H17         9.6310    0.1690   -3.2380 hn        1 MOL      0.244270
     46 H18        10.6570    1.8250   -2.2420 h1        1 MOL      0.231690
     47 H19        10.1210    1.2670   -0.6250 h1        1 MOL      0.231690
     48 N5          7.4910    2.4910   -1.8980 n         1 MOL     -0.558475
     49 C16         6.4390    3.5170   -1.8270 c3        1 MOL      0.378058
     50 C17         5.2410    3.1190   -0.9750 c         1 MOL      0.460439
     51 O10         5.1850    1.9360   -0.6200 o         1 MOL     -0.531702
     52 C18         6.0920    3.8130   -3.3530 c3        1 MOL     -0.292781
     53 C19         5.2730    5.0930   -3.5680 c         1 MOL      0.586401
     54 N6          3.9700    5.0150   -3.5350 n         1 MOL     -0.628321
     55 O11         5.7440    6.1780   -3.8940 o         1 MOL     -0.547506
     56 H20         7.2920    1.4960   -1.9200 hn        1 MOL      0.284303
     57 H21         6.8760    4.4200   -1.4010 h1        1 MOL     -0.000231
     58 H22         5.6950    2.9500   -3.8840 hc        1 MOL      0.083284
     59 H23         7.0710    4.0840   -3.7280 hc        1 MOL      0.083284
     60 H24         3.5220    4.1190   -3.6490 hn        1 MOL      0.324862
     61 H25         3.4070    5.8110   -3.7960 hn        1 MOL      0.324862
     62 N7          4.4040    4.0890   -0.5940 n         1 MOL     -0.492610
     63 C20         3.2530    3.9060    0.2690 c3        1 MOL      0.063285
     64 C21         2.3240    5.1390    0.2230 c         1 MOL      0.517438
     65 O12         2.6090    6.0500   -0.4830 o         1 MOL     -0.520003
     66 H26         4.6920    5.0220   -0.8550 hn        1 MOL      0.296639
     67 H27         3.4950    3.6720    1.3100 h1        1 MOL      0.076682
     68 H28         2.6920    3.0550   -0.1150 h1        1 MOL      0.076682
     69 N8          1.1400    5.1020    0.8260 n         1 MOL     -0.426692
     70 C22         0.6040    4.0500    1.7960 c3        1 MOL     -0.401870
     71 C23        -0.6440    3.4140    1.2660 c         1 MOL      0.729277
     72 O13        -1.4890    4.0900    0.6510 o         1 MOL     -0.543939
     73 C24         0.2880    4.5750    3.1970 c3        1 MOL      0.538849
     74 C25         1.5330    4.9710    3.9810 c3        1 MOL     -0.294982
     75 O14        -0.6350    5.6100    3.3570 oh        1 MOL     -0.583637
     76 H29         0.5740    5.9370    0.8280 hn        1 MOL      0.322211
     77 H30         1.2900    3.2270    1.9790 h1        1 MOL      0.105040
     78 H31        -0.1150    3.7410    3.7620 h1        1 MOL      0.043359
     79 H32        -0.2100    6.3640    2.9310 ho        1 MOL      0.377498
     80 H33         1.2290    5.4080    4.9350 hc        1 MOL      0.048367
     81 H34         2.1710    4.0910    4.0200 hc        1 MOL      0.048367
     82 H35         2.1300    5.6690    3.4000 hc        1 MOL      0.048367
     83 N9         -0.8920    2.1620    1.5970 n         1 MOL     -0.504344
     84 C26        -2.0370    1.3130    1.2540 c3        1 MOL      0.046398
     85 C27        -2.9400    1.0020    2.4210 c         1 MOL      0.727568
     86 O15        -2.4240    0.7950    3.4750 o         1 MOL     -0.644133
     87 C28        -1.6120    0.1730    0.3300 c3        1 MOL     -0.096328
     88 C29        -0.7700   -0.8570    1.0600 c3        1 MOL      0.151440
     89 C30        -0.9350    0.7940   -0.9240 c3        1 MOL     -0.640431
     90 C31        -0.5780   -2.1220    0.2760 c3        1 MOL     -0.009406
     91 H36        -0.2800    1.7520    2.2850 hn        1 MOL      0.238879
     92 H37        -2.6540    1.8820    0.5490 h1        1 MOL      0.090107
     93 H38        -2.5680   -0.2390   -0.0080 hc        1 MOL      0.116134
     94 H39        -1.2460   -1.0610    2.0270 hc        1 MOL     -0.041120
     95 H40         0.2020   -0.4090    1.2870 hc        1 MOL     -0.041120
     96 H41        -0.6170   -0.0520   -1.5380 hc        1 MOL      0.195043
     97 H42        -1.7620    1.2790   -1.4360 hc        1 MOL      0.195043
     98 H43        -0.0980    1.4740   -0.7620 hc        1 MOL      0.195043
     99 H44         0.0700   -2.7630    0.8730 hc        1 MOL     -0.015787
    100 H45        -1.5470   -2.6120    0.1560 hc        1 MOL     -0.015787
    101 H46        -0.0330   -2.0130   -0.6560 hc        1 MOL     -0.015787
    102 N10        -4.2280    0.9250    2.2870 n         1 MOL     -0.647396
    103 C32        -5.0430    1.3590    1.1480 c3        1 MOL      0.281476
    104 C33        -6.3910    0.6840    1.0120 c         1 MOL      0.216212
    105 O16        -6.9120    0.0060    1.9510 o         1 MOL     -0.464408
    106 C34        -5.2350    2.8920    1.2610 c3        1 MOL     -0.035500
    107 C35        -6.0120    3.4460    2.5070 c         1 MOL      0.702552
    108 O17        -6.8770    2.7810    3.0820 o         1 MOL     -0.714581
    109 O18        -5.7640    4.6360    2.7530 o         1 MOL     -0.714581
    110 H47        -4.6340    0.6580    3.1700 hn        1 MOL      0.360908
    111 H48        -4.6440    1.2120    0.1460 h1        1 MOL      0.040692
    112 H49        -5.7380    3.2290    0.3460 hc        1 MOL     -0.040556
    113 H50        -4.2610    3.3810    1.2670 hc        1 MOL     -0.040556
    114 N11        -7.1570    1.0040   -0.0590 n         1 MOL     -0.367684
    115 C36        -8.5370    0.5670   -0.1860 c3        1 MOL      0.574120
    116 C37        -8.7670    0.4020   -1.6980 c         1 MOL      0.036432
    117 O19        -8.2750    1.2420   -2.4840 o         1 MOL     -0.476250
    118 C38        -9.4490    1.6150    0.3750 c3        1 MOL     -0.312083
    119 C39       -10.8650    1.1630    0.2950 ca        1 MOL      0.257545
    120 C40       -11.6090    1.4970   -0.8820 ca        1 MOL     -0.310273
    121 C41       -11.4560    0.3700    1.3330 ca        1 MOL     -0.310273
    122 C42       -12.9020    0.7790   -1.0550 ca        1 MOL     -0.031021
    123 C43       -12.7820   -0.1360    1.1040 ca        1 MOL     -0.031021
    124 C44       -13.4930    0.0390   -0.0300 ca        1 MOL     -0.203453
    125 H51        -6.8180    1.7080   -0.7130 hn        1 MOL      0.278573
    126 H52        -8.6100   -0.3130    0.4420 h1        1 MOL     -0.016243
    127 H53        -9.3630    2.5390   -0.1980 hc        1 MOL      0.095010
    128 H54        -9.2350    1.9010    1.4040 hc        1 MOL      0.095010
    129 H55       -11.2070    2.1120   -1.6730 ha        1 MOL      0.183469
    130 H56       -10.9340    0.0520    2.2160 ha        1 MOL      0.183469
    131 H57       -13.5000    1.0340   -1.9220 ha        1 MOL      0.080911
    132 H58       -13.2170   -0.5930    1.9860 ha        1 MOL      0.080911
    133 H59       -14.4700   -0.3640   -0.2800 ha        1 MOL      0.105666
    134 N12        -9.5970   -0.5470   -2.1270 n         1 MOL      0.167485
    135 C45       -10.0780   -1.7390   -1.4030 c3        1 MOL      0.098716
    136 C46        -8.9970   -2.4920   -0.5460 c         1 MOL      0.325063
    137 O20        -9.1780   -2.8310    0.6640 o         1 MOL     -0.518305
    138 C47       -10.7570   -2.6230   -2.4480 c3        1 MOL     -0.068577
    139 C48       -11.1850   -1.7210   -3.6240 c3        1 MOL      0.001609
    140 C49       -10.0360   -0.7280   -3.5180 c3        1 MOL     -0.426808
    141 H60       -10.7810   -1.4670   -0.6220 h1        1 MOL     -0.001970
    142 H61       -10.0570   -3.3780   -2.8340 hc        1 MOL      0.041830
    143 H62       -11.5890   -3.2340   -2.1080 hc        1 MOL      0.041830
    144 H63       -11.2160   -2.2860   -4.5530 hc        1 MOL      0.025012
    145 H64       -12.0860   -1.1340   -3.4190 hc        1 MOL      0.025012
    146 H65        -9.2480   -1.2310   -4.0810 h1        1 MOL      0.162630
    147 H66       -10.3820    0.2370   -3.9000 h1        1 MOL      0.162630
    148 N13        -7.8140   -2.7300   -1.1150 n         1 MOL     -0.264308
    149 C50        -6.5660   -3.2980   -0.5210 c3        1 MOL      0.079719
    150 C51        -6.6460   -4.8660   -0.4420 c         1 MOL      0.453881
    151 O21        -6.5530   -5.5010   -1.4450 o         1 MOL     -0.541343
    152 C52        -5.4220   -2.9580   -1.3610 c3        1 MOL     -0.062559
    153 C53        -5.0140   -1.4860   -1.3820 c3        1 MOL     -0.056512
    154 C54        -3.9780   -1.1820   -2.4220 c         1 MOL      0.701353
    155 O22        -4.3180   -0.4290   -3.3700 o         1 MOL     -0.720594
    156 O23        -2.7850   -1.5770   -2.3070 o         1 MOL     -0.720594
    157 H67        -7.7180   -2.5120   -2.1000 hn        1 MOL      0.229242
    158 H68        -6.3460   -2.8630    0.4550 h1        1 MOL      0.116427
    159 H69        -5.5870   -3.3110   -2.3770 hc        1 MOL      0.033378
    160 H70        -4.5840   -3.6020   -1.0890 hc        1 MOL      0.033378
    161 H71        -4.7040   -1.1730   -0.3790 hc        1 MOL     -0.028559
    162 H72        -5.8470   -0.8090   -1.5780 hc        1 MOL     -0.028559
    163 N14        -6.8120   -5.4090    0.7870 n         1 MOL     -0.395172
    164 C55        -7.1500   -4.7650    2.0960 c3        1 MOL     -0.060322
    165 H73        -8.1800   -5.0010    2.3610 h1        1 MOL      0.063149
    166 H74        -6.4820   -5.1420    2.8700 h1        1 MOL      0.063149
    167 H75        -7.0350   -3.6850    2.0100 h1        1 MOL      0.063149
    168 H76        -6.8470   -6.4160    0.8450 hn        1 MOL      0.262003
    169 Ca1         5.6950   -0.2840    0.8770 Ca        1 MOL      1.700823
    170 O24         3.7710   -1.6700    2.4470 oh        1 MOL     -0.808003
    171 H77         3.7850   -2.5580    2.0810 ho        1 MOL      0.403372
    172 H78         2.8440   -1.4570    2.5010 ho        1 MOL      0.403372
    173 O25         3.0470   -0.2100    0.0390 oh        1 MOL     -0.808003
    174 H79         2.9870   -1.1470   -0.1350 ho        1 MOL      0.403372
    175 H80         2.5730    0.1960   -0.6860 ho        1 MOL      0.403372
    176 O26         7.3090    1.7320    1.4930 oh        1 MOL     -0.808003
    177 H81         7.3390    2.6910    1.5120 ho        1 MOL      0.403372
    178 H82         8.1730    1.4540    1.7910 ho        1 MOL      0.403372
    179 O27         4.1450    1.5190    2.3280 oh        1 MOL     -0.808003
    180 H83         4.3390    2.3670    2.7300 ho        1 MOL      0.403372
    181 H84         3.2060    1.4040    2.4710 ho        1 MOL      0.403372
@<TRIPOS>BOND
     1    1    2 1   
     2    1    4 1   
     3    1    5 1   
     4    1    6 1   
     5    2    3 2   
     6    2    7 1   
     7    7    8 1   
     8    7   15 1   
     9    8    9 1   
    10    8   11 1   
    11    8   16 1   
    12    9   10 2   
    13    9   19 1   
    14   11   12 1   
    15   11   17 1   
    16   11   18 1   
    17   12   13 1   
    18   12   14 1   
    19   19   20 1   
    20   19   24 1   
    21   20   21 1   
    22   20   23 1   
    23   20   25 1   
    24   21   22 2   
    25   21   29 1   
    26   23   26 1   
    27   23   27 1   
    28   23   28 1   
    29   29   30 1   
    30   29   37 1   
    31   30   31 1   
    32   30   33 1   
    33   30   38 1   
    34   31   32 2   
    35   31   41 1   
    36   33   34 1   
    37   33   39 1   
    38   33   40 1   
    39   34   35 1   
    40   34   36 1   
    41   41   42 1   
    42   41   45 1   
    43   42   43 1   
    44   42   46 1   
    45   42   47 1   
    46   43   44 2   
    47   43   48 1   
    48   48   49 1   
    49   48   56 1   
    50   49   50 1   
    51   49   52 1   
    52   49   57 1   
    53   50   51 2   
    54   50   62 1   
    55   52   53 1   
    56   52   58 1   
    57   52   59 1   
    58   53   54 1   
    59   53   55 2   
    60   54   60 1   
    61   54   61 1   
    62   62   63 1   
    63   62   66 1   
    64   63   64 1   
    65   63   67 1   
    66   63   68 1   
    67   64   65 2   
    68   64   69 1   
    69   69   70 1   
    70   69   76 1   
    71   70   71 1   
    72   70   73 1   
    73   70   77 1   
    74   71   72 2   
    75   71   83 1   
    76   73   74 1   
    77   73   75 1   
    78   73   78 1   
    79   74   80 1   
    80   74   81 1   
    81   74   82 1   
    82   75   79 1   
    83   83   84 1   
    84   83   91 1   
    85   84   85 1   
    86   84   87 1   
    87   84   92 1   
    88   85   86 2   
    89   85  102 1   
    90   87   88 1   
    91   87   89 1   
    92   87   93 1   
    93   88   90 1   
    94   88   94 1   
    95   88   95 1   
    96   89   96 1   
    97   89   97 1   
    98   89   98 1   
    99   90   99 1   
   100   90  100 1   
   101   90  101 1   
   102  102  103 1   
   103  102  110 1   
   104  103  104 1   
   105  103  106 1   
   106  103  111 1   
   107  104  105 2   
   108  104  114 1   
   109  106  107 1   
   110  106  112 1   
   111  106  113 1   
   112  107  108 1   
   113  107  109 1   
   114  114  115 1   
   115  114  125 1   
   116  115  116 1   
   117  115  118 1   
   118  115  126 1   
   119  116  117 2   
   120  116  134 1   
   121  118  119 1   
   122  118  127 1   
   123  118  128 1   
   124  119  120 ar  
   125  119  121 ar  
   126  120  122 ar  
   127  120  129 1   
   128  121  123 ar  
   129  121  130 1   
   130  122  124 ar  
   131  122  131 1   
   132  123  124 ar  
   133  123  132 1   
   134  124  133 1   
   135  134  135 1   
   136  134  140 1   
   137  135  136 1   
   138  135  138 1   
   139  135  141 1   
   140  136  137 2   
   141  136  148 1   
   142  138  139 1   
   143  138  142 1   
   144  138  143 1   
   145  139  140 1   
   146  139  144 1   
   147  139  145 1   
   148  140  146 1   
   149  140  147 1   
   150  148  149 1   
   151  148  157 1   
   152  149  150 1   
   153  149  152 1   
   154  149  158 1   
   155  150  151 2   
   156  150  163 1   
   157  152  153 1   
   158  152  159 1   
   159  152  160 1   
   160  153  154 1   
   161  153  161 1   
   162  153  162 1   
   163  154  155 1   
   164  154  156 1   
   165  163  164 1   
   166  163  168 1   
   167  164  165 1   
   168  164  166 1   
   169  164  167 1   
   170  170  171 1   
   171  170  172 1   
   172  173  174 1   
   173  173  175 1   
   174  176  177 1   
   175  176  178 1   
   176  179  180 1   
   177  179  181 1   
@<TRIPOS>SUBSTRUCTURE
     1 MOL         1 TEMP              0 ****  ****    0 ROOT
