@<TRIPOS>MOLECULE
MOL
  178   175     1     0     0
SMALL
resp


@<TRIPOS>ATOM
      1 C1          1.1800    6.5560   -1.2180 c3        1 MOL     -0.453542
      2 C2          2.5790    6.3990   -0.6580 c         1 MOL      0.815297
      3 O1          2.7760    6.8010    0.4700 o         1 MOL     -0.617184
      4 H1          0.6030    5.6540   -1.0110 hc        1 MOL      0.106145
      5 H2          0.6960    7.4130   -0.7500 hc        1 MOL      0.106145
      6 H3          1.2340    6.7120   -2.2960 hc        1 MOL      0.106145
      7 N1          3.4590    5.7780   -1.4330 n         1 MOL     -0.808391
      8 C3          4.8190    5.4200   -1.0120 c3        1 MOL      0.678252
      9 C4          4.6310    4.3440    0.0330 c         1 MOL      0.438996
     10 O2          3.7250    3.4800   -0.0790 o         1 MOL     -0.546773
     11 C5          5.7160    4.8740   -2.1720 c3        1 MOL     -0.700176
     12 C6          7.0830    5.4990   -2.1340 c         1 MOL      0.864817
     13 O3          7.9270    5.3750   -3.0650 o         1 MOL     -0.754331
     14 O4          7.4650    6.1190   -1.1310 o         1 MOL     -0.754331
     15 H4          3.1120    5.4690   -2.3290 hn        1 MOL      0.332868
     16 H5          5.2690    6.2950   -0.5580 h1        1 MOL     -0.057773
     17 H6          5.2660    5.1840   -3.1120 hc        1 MOL      0.145605
     18 H7          5.9010    3.8030   -2.0250 hc        1 MOL      0.145605
     19 N2          5.4670    4.3380    1.0480 n         1 MOL     -0.472143
     20 C7          5.5990    3.2480    2.0630 c3        1 MOL      0.250027
     21 C8          4.2640    2.7280    2.7790 c         1 MOL      0.396742
     22 O5          3.2940    3.4710    3.0610 o         1 MOL     -0.487600
     23 C9          6.7840    3.6660    3.0440 c3        1 MOL     -0.214360
     24 H8          6.1210    5.1070    1.0730 hn        1 MOL      0.278272
     25 H9          5.9120    2.3990    1.4550 h1        1 MOL      0.034754
     26 H10         6.5570    4.4600    3.7590 hc        1 MOL      0.061604
     27 H11         7.0010    2.7080    3.5130 hc        1 MOL      0.061604
     28 H12         7.6850    3.9970    2.5230 hc        1 MOL      0.061604
     29 N3          4.0980    1.4170    3.1640 n         1 MOL     -0.318822
     30 C10         5.0030    0.2400    3.0670 c3        1 MOL     -0.018519
     31 C11         4.8180   -0.4930    1.6540 c         1 MOL      0.588001
     32 O6          3.6870   -0.7070    1.2670 o         1 MOL     -0.605069
     33 C12         4.9410   -0.8310    4.1830 c3        1 MOL     -0.282421
     34 C13         3.5500   -1.4140    4.4250 c         1 MOL      0.786164
     35 O7          2.4990   -1.0550    3.8520 o         1 MOL     -0.719844
     36 O8          3.4830   -2.3510    5.2690 o         1 MOL     -0.719844
     37 H13         3.2580    1.3730    3.7240 hn        1 MOL      0.251326
     38 H14         6.0210    0.6210    3.0260 h1        1 MOL      0.048584
     39 H15         5.1840   -0.3610    5.1360 hc        1 MOL      0.063669
     40 H16         5.7040   -1.5840    4.0020 hc        1 MOL      0.063669
     41 N4          5.8640   -0.8690    1.0170 n         1 MOL     -0.358729
     42 C14         5.9060   -1.7090   -0.1560 c3        1 MOL     -0.058053
     43 C15         5.4510   -0.9050   -1.4110 c         1 MOL      0.653103
     44 O9          5.5350    0.3300   -1.3690 o         1 MOL     -0.557398
     45 H17         6.7170   -0.5140    1.4240 hn        1 MOL      0.250226
     46 H18         5.2470   -2.5670    0.0020 h1        1 MOL      0.074975
     47 H19         6.8640   -2.1070   -0.4850 h1        1 MOL      0.074975
     48 N5          5.0390   -1.5910   -2.4250 n         1 MOL     -0.546960
     49 C16         5.1380   -3.0150   -2.6870 c3        1 MOL      0.253848
     50 C17         3.7270   -3.7290   -2.5790 c         1 MOL      0.612683
     51 O10         2.6700   -3.1080   -2.3650 o         1 MOL     -0.533420
     52 C18         5.7960   -3.3060   -4.0690 c3        1 MOL     -0.358216
     53 C19         7.1450   -2.8590   -4.1860 c         1 MOL      0.770784
     54 N6          7.4240   -1.9520   -5.0830 n         1 MOL     -0.839695
     55 O11         8.0540   -3.2530   -3.4760 o         1 MOL     -0.581064
     56 H20         4.6440   -0.9860   -3.1380 hn        1 MOL      0.297381
     57 H21         5.8100   -3.5460   -2.0180 h1        1 MOL     -0.015134
     58 H22         5.1600   -2.8120   -4.8020 hc        1 MOL      0.067311
     59 H23         5.7930   -4.3790   -4.2650 hc        1 MOL      0.067311
     60 H24         6.6350   -1.6120   -5.6160 hn        1 MOL      0.396416
     61 H25         8.3670   -1.5980   -5.0700 hn        1 MOL      0.396416
     62 N7          3.7740   -5.0200   -2.7060 n         1 MOL     -0.518964
     63 C20         2.6600   -5.9780   -2.7270 c3        1 MOL     -0.038029
     64 C21         1.8660   -6.1870   -1.4470 c         1 MOL      0.451702
     65 O12         1.2610   -7.2790   -1.2370 o         1 MOL     -0.554613
     66 H26         4.6690   -5.4830   -2.6820 hn        1 MOL      0.344250
     67 H27         2.9700   -6.9510   -3.1130 h1        1 MOL      0.094621
     68 H28         1.8620   -5.6620   -3.3980 h1        1 MOL      0.094621
     69 N8          1.9510   -5.2570   -0.4630 n         1 MOL     -0.202983
     70 C22         1.1580   -5.3160    0.7900 c3        1 MOL     -0.254588
     71 C23         0.1530   -4.1840    0.7650 c         1 MOL      0.571590
     72 O13         0.5290   -3.1180    1.2070 o         1 MOL     -0.532081
     73 C24         2.0070   -5.2270    2.0370 c3        1 MOL      0.342684
     74 C25         2.7270   -6.5830    2.2540 c3        1 MOL     -0.383567
     75 O14         3.0010   -4.2220    1.9310 oh        1 MOL     -0.539786
     76 H29         2.6240   -4.5250   -0.6400 hn        1 MOL      0.210464
     77 H30         0.6740   -6.2820    0.8050 h1        1 MOL      0.124136
     78 H31         1.3220   -4.9070    2.8270 h1        1 MOL      0.072731
     79 H32         2.6790   -3.5440    2.5390 ho        1 MOL      0.350624
     80 H33         3.6720   -6.6420    1.7130 hc        1 MOL      0.097055
     81 H34         2.9700   -6.6620    3.3160 hc        1 MOL      0.097055
     82 H35         2.0810   -7.4620    2.2280 hc        1 MOL      0.097055
     83 N9         -1.0570   -4.3810    0.2230 n         1 MOL     -0.367985
     84 C26        -1.9450   -3.2420   -0.0550 c3        1 MOL     -0.039323
     85 C27        -2.8430   -3.0730    1.1610 c         1 MOL      0.406471
     86 O15        -3.4940   -3.9970    1.6720 o         1 MOL     -0.568052
     87 C28        -2.6840   -3.4420   -1.4050 c3        1 MOL      0.057608
     88 C29        -3.4180   -2.1720   -1.7630 c3        1 MOL      0.101947
     89 C30        -1.6940   -3.8540   -2.5360 c3        1 MOL     -0.081039
     90 C31        -4.2260   -2.2360   -3.0700 c3        1 MOL     -0.081985
     91 H36        -1.3710   -5.3010   -0.0300 hn        1 MOL      0.274217
     92 H37        -1.3250   -2.3620   -0.1670 h1        1 MOL      0.016969
     93 H38        -3.4240   -4.2300   -1.3380 hc        1 MOL      0.020841
     94 H39        -2.6330   -1.4350   -1.8890 hc        1 MOL     -0.019652
     95 H40        -4.1160   -1.8310   -0.9950 hc        1 MOL     -0.019652
     96 H41        -1.0980   -2.9810   -2.8200 hc        1 MOL      0.015065
     97 H42        -1.0020   -4.6640   -2.3490 hc        1 MOL      0.015065
     98 H43        -2.2850   -4.2930   -3.3400 hc        1 MOL      0.015065
     99 H44        -4.2900   -1.2250   -3.4640 hc        1 MOL      0.002553
    100 H45        -3.8110   -2.6950   -3.9630 hc        1 MOL      0.002553
    101 H46        -5.2040   -2.6290   -2.8120 hc        1 MOL      0.002553
    102 N10        -2.8340   -1.8590    1.7920 n         1 MOL      0.029009
    103 C32        -3.5710   -1.5340    3.0030 c3        1 MOL     -0.022450
    104 C33        -5.0490   -1.1980    2.7320 c         1 MOL      0.439125
    105 O16        -5.9440   -1.4960    3.4820 o         1 MOL     -0.550410
    106 C34        -3.0610   -0.3230    3.6900 c3        1 MOL     -0.231758
    107 C35        -1.5390   -0.1060    3.7610 c         1 MOL      0.789200
    108 O17        -1.1330    0.9990    4.1710 o         1 MOL     -0.745909
    109 O18        -0.6880   -0.9210    3.3260 o         1 MOL     -0.745909
    110 H47        -2.4410   -1.0310    1.3780 hn        1 MOL     -0.065725
    111 H48        -3.4390   -2.4440    3.5900 h1        1 MOL      0.096251
    112 H49        -3.5130   -0.1830    4.6780 hc        1 MOL      0.078741
    113 H50        -3.3590    0.5500    3.1120 hc        1 MOL      0.078741
    114 N11        -5.3340   -0.4580    1.6560 n         1 MOL     -0.399402
    115 C36        -6.5760   -0.0690    1.0350 c3        1 MOL      0.610612
    116 C37        -6.5360    1.2960    0.2770 c         1 MOL      0.154696
    117 O19        -6.9600    1.4460   -0.8610 o         1 MOL     -0.435028
    118 C38        -7.0890   -1.2510    0.1540 c3        1 MOL     -0.604690
    119 C39        -8.4590   -1.1420   -0.4940 ca        1 MOL      0.323690
    120 C40        -9.5070   -0.3380    0.0410 ca        1 MOL     -0.285539
    121 C41        -8.7030   -1.9140   -1.6530 ca        1 MOL     -0.285539
    122 C42       -10.7340   -0.1660   -0.6460 ca        1 MOL     -0.046064
    123 C43        -9.9700   -1.7570   -2.2750 ca        1 MOL     -0.046064
    124 C44       -10.9370   -0.8770   -1.8410 ca        1 MOL     -0.186306
    125 H51        -4.5280   -0.0970    1.1600 hn        1 MOL      0.226942
    126 H52        -7.2810    0.1410    1.8380 h1        1 MOL     -0.052267
    127 H53        -7.0900   -2.0830    0.8560 hc        1 MOL      0.167461
    128 H54        -6.4170   -1.5620   -0.6520 hc        1 MOL      0.167461
    129 H55        -9.3820    0.2290    0.9630 ha        1 MOL      0.154277
    130 H56        -7.9440   -2.4440   -2.2000 ha        1 MOL      0.154277
    131 H57       -11.4740    0.4340   -0.1490 ha        1 MOL      0.086250
    132 H58       -10.1040   -2.2720   -3.2180 ha        1 MOL      0.086250
    133 H59       -11.9410   -0.8380   -2.2440 ha        1 MOL      0.099215
    134 N12        -6.0280    2.3590    0.9270 n         1 MOL     -0.067637
    135 C45        -5.9260    3.7830    0.3570 c3        1 MOL     -0.058210
    136 C46        -5.0460    3.8790   -0.8940 c         1 MOL      0.212466
    137 O20        -5.2550    4.8420   -1.6440 o         1 MOL     -0.471292
    138 C47        -5.2350    4.6120    1.4630 c3        1 MOL      0.011245
    139 C48        -5.7060    3.8260    2.7400 c3        1 MOL     -0.150044
    140 C49        -5.8500    2.4040    2.3290 c3        1 MOL      0.158940
    141 H60        -6.9050    4.2540    0.2620 h1        1 MOL      0.091500
    142 H61        -4.1430    4.5820    1.3580 hc        1 MOL      0.047822
    143 H62        -5.5030    5.6650    1.3750 hc        1 MOL      0.047822
    144 H63        -4.9810    4.0310    3.5290 hc        1 MOL      0.037641
    145 H64        -6.6470    4.2730    3.0750 hc        1 MOL      0.037641
    146 H65        -4.9970    1.7780    2.6090 h1        1 MOL     -0.007521
    147 H66        -6.6900    1.9600    2.8610 h1        1 MOL     -0.007521
    148 N13        -4.2270    2.8800   -1.1690 n         1 MOL      0.181604
    149 C50        -3.4380    2.9380   -2.3890 c3        1 MOL     -0.326997
    150 C51        -4.3970    3.0060   -3.6550 c         1 MOL      0.474227
    151 O21        -4.3450    3.8460   -4.5240 o         1 MOL     -0.514705
    152 C52        -2.4410    1.7500   -2.5900 c3        1 MOL      0.055301
    153 C53        -1.4400    1.7070   -1.4400 c3        1 MOL      0.010382
    154 C54        -1.7130    0.8780   -0.2300 c         1 MOL      0.457217
    155 O22        -0.8520    0.0640    0.1480 o         1 MOL     -0.505300
    156 O23        -2.8610    0.8770    0.2500 o         1 MOL     -0.505300
    157 H67        -3.9820    2.1730   -0.4850 hn        1 MOL      0.037857
    158 H68        -2.9070    3.8890   -2.4150 h1        1 MOL      0.119791
    159 H69        -1.8870    1.7890   -3.5230 hc        1 MOL      0.003157
    160 H70        -2.9170    0.7740   -2.5810 hc        1 MOL      0.003157
    161 H71        -1.1570    2.7090   -1.1290 hc        1 MOL      0.011414
    162 H72        -0.5080    1.2980   -1.8450 hc        1 MOL      0.011414
    163 N14        -5.3620    2.0690   -3.6020 n         1 MOL     -0.177877
    164 C55        -6.4730    1.8870   -4.5550 c3        1 MOL     -0.263175
    165 H73        -6.9480    0.9220   -4.3780 h1        1 MOL      0.100516
    166 H74        -7.2050    2.6820   -4.4160 h1        1 MOL      0.100516
    167 H75        -6.0880    1.9200   -5.5740 h1        1 MOL      0.100516
    168 H76        -5.3990    1.4650   -2.7940 hn        1 MOL      0.201955
    169 Ca1         1.2410   -0.1720    1.6060 Ca        1 MOL      1.747735
    170 O24         1.1070    1.9120    2.9690 oh        1 MOL     -0.902182
    171 H77         1.5380    2.7440    3.1380 ho        1 MOL      0.427070
    172 H78         0.3950    1.8790    3.6130 ho        1 MOL      0.427070
    173 O25         1.5100   -1.1990   -1.0200 oh        1 MOL     -0.902182
    174 H79         0.6810   -1.6230   -1.2510 ho        1 MOL      0.427070
    175 H80         2.1670   -1.6380   -1.5600 ho        1 MOL      0.427070
    176 O26         1.9160    1.5570   -0.3370 oh        1 MOL     -0.902182
    177 H81         2.4320    2.3480   -0.1860 ho        1 MOL      0.427070
    178 H82         2.1480    1.2780   -1.2190 ho        1 MOL      0.427070
@<TRIPOS>BOND
     1    1    2 1   
     2    1    4 1   
     3    1    5 1   
     4    1    6 1   
     5    2    3 2   
     6    2    7 1   
     7    7    8 1   
     8    7   15 1   
     9    8    9 1   
    10    8   11 1   
    11    8   16 1   
    12    9   10 2   
    13    9   19 1   
    14   11   12 1   
    15   11   17 1   
    16   11   18 1   
    17   12   13 1   
    18   12   14 1   
    19   19   20 1   
    20   19   24 1   
    21   20   21 1   
    22   20   23 1   
    23   20   25 1   
    24   21   22 2   
    25   21   29 1   
    26   23   26 1   
    27   23   27 1   
    28   23   28 1   
    29   29   30 1   
    30   29   37 1   
    31   30   31 1   
    32   30   33 1   
    33   30   38 1   
    34   31   32 2   
    35   31   41 1   
    36   33   34 1   
    37   33   39 1   
    38   33   40 1   
    39   34   35 1   
    40   34   36 1   
    41   41   42 1   
    42   41   45 1   
    43   42   43 1   
    44   42   46 1   
    45   42   47 1   
    46   43   44 2   
    47   43   48 1   
    48   48   49 1   
    49   48   56 1   
    50   49   50 1   
    51   49   52 1   
    52   49   57 1   
    53   50   51 2   
    54   50   62 1   
    55   52   53 1   
    56   52   58 1   
    57   52   59 1   
    58   53   54 1   
    59   53   55 2   
    60   54   60 1   
    61   54   61 1   
    62   62   63 1   
    63   62   66 1   
    64   63   64 1   
    65   63   67 1   
    66   63   68 1   
    67   64   65 2   
    68   64   69 1   
    69   69   70 1   
    70   69   76 1   
    71   70   71 1   
    72   70   73 1   
    73   70   77 1   
    74   71   72 2   
    75   71   83 1   
    76   73   74 1   
    77   73   75 1   
    78   73   78 1   
    79   74   80 1   
    80   74   81 1   
    81   74   82 1   
    82   75   79 1   
    83   83   84 1   
    84   83   91 1   
    85   84   85 1   
    86   84   87 1   
    87   84   92 1   
    88   85   86 2   
    89   85  102 1   
    90   87   88 1   
    91   87   89 1   
    92   87   93 1   
    93   88   90 1   
    94   88   94 1   
    95   88   95 1   
    96   89   96 1   
    97   89   97 1   
    98   89   98 1   
    99   90   99 1   
   100   90  100 1   
   101   90  101 1   
   102  102  103 1   
   103  102  110 1   
   104  103  104 1   
   105  103  106 1   
   106  103  111 1   
   107  104  105 2   
   108  104  114 1   
   109  106  107 1   
   110  106  112 1   
   111  106  113 1   
   112  107  108 1   
   113  107  109 1   
   114  114  115 1   
   115  114  125 1   
   116  115  116 1   
   117  115  118 1   
   118  115  126 1   
   119  116  117 2   
   120  116  134 1   
   121  118  119 1   
   122  118  127 1   
   123  118  128 1   
   124  119  120 ar  
   125  119  121 ar  
   126  120  122 ar  
   127  120  129 1   
   128  121  123 ar  
   129  121  130 1   
   130  122  124 ar  
   131  122  131 1   
   132  123  124 ar  
   133  123  132 1   
   134  124  133 1   
   135  134  135 1   
   136  134  140 1   
   137  135  136 1   
   138  135  138 1   
   139  135  141 1   
   140  136  137 2   
   141  136  148 1   
   142  138  139 1   
   143  138  142 1   
   144  138  143 1   
   145  139  140 1   
   146  139  144 1   
   147  139  145 1   
   148  140  146 1   
   149  140  147 1   
   150  148  149 1   
   151  148  157 1   
   152  149  150 1   
   153  149  152 1   
   154  149  158 1   
   155  150  151 2   
   156  150  163 1   
   157  152  153 1   
   158  152  159 1   
   159  152  160 1   
   160  153  154 1   
   161  153  161 1   
   162  153  162 1   
   163  154  155 1   
   164  154  156 1   
   165  163  164 1   
   166  163  168 1   
   167  164  165 1   
   168  164  166 1   
   169  164  167 1   
   170  170  171 1   
   171  170  172 1   
   172  173  174 1   
   173  173  175 1   
   174  176  177 1   
   175  176  178 1   
@<TRIPOS>SUBSTRUCTURE
     1 MOL         1 TEMP              0 ****  ****    0 ROOT
