@<TRIPOS>MOLECULE
MOL
  181   177     1     0     0
SMALL
resp


@<TRIPOS>ATOM
      1 C1         -7.1450    4.0170   -5.1810 c3        1 MOL     -0.291852
      2 C2         -6.3220    2.9370   -4.5150 c         1 MOL      0.736458
      3 O1         -5.1700    2.7810   -4.8260 o         1 MOL     -0.570088
      4 H1         -6.9300    4.9780   -4.7120 hc        1 MOL      0.063749
      5 H2         -6.8930    4.0670   -6.2400 hc        1 MOL      0.063749
      6 H3         -8.2050    3.7880   -5.0690 hc        1 MOL      0.063749
      7 N1         -6.8750    2.0730   -3.5880 n         1 MOL     -0.578833
      8 C3         -8.3160    2.0410   -3.0250 c3        1 MOL      0.084082
      9 C4         -8.8990    0.6190   -2.9500 c         1 MOL      0.495016
     10 O2         -8.4810   -0.1880   -3.7510 o         1 MOL     -0.471633
     11 C5         -8.3660    2.7880   -1.6480 c3        1 MOL     -0.352982
     12 C6         -7.3810    2.1380   -0.6590 c         1 MOL      0.647381
     13 O3         -6.3090    2.7860   -0.3810 o         1 MOL     -0.699892
     14 O4         -7.5610    1.0210   -0.0450 o         1 MOL     -0.699892
     15 H4         -6.2970    1.2840   -3.3350 hn        1 MOL      0.384149
     16 H5         -8.9390    2.5800   -3.7340 h1        1 MOL      0.075450
     17 H6         -9.3740    2.9560   -1.2770 hc        1 MOL      0.100152
     18 H7         -7.9340    3.7730   -1.8100 hc        1 MOL      0.100152
     19 N2         -9.8050    0.2350   -2.0450 n         1 MOL     -0.594268
     20 C7        -10.1290   -1.2150   -1.7430 c3        1 MOL      0.479170
     21 C8         -9.0220   -2.1960   -1.3160 c         1 MOL      0.228390
     22 O5         -9.1520   -3.4330   -1.4390 o         1 MOL     -0.518385
     23 C9        -10.9130   -1.8140   -2.9600 c3        1 MOL     -0.563650
     24 H8        -10.3430    0.9130   -1.5310 hn        1 MOL      0.296183
     25 H9        -10.8190   -1.1540   -0.9040 h1        1 MOL     -0.008143
     26 H10       -11.3910   -1.0230   -3.5400 hc        1 MOL      0.147504
     27 H11       -10.2340   -2.3480   -3.6260 hc        1 MOL      0.147504
     28 H12       -11.6700   -2.4620   -2.5190 hc        1 MOL      0.147504
     29 N3         -7.8430   -1.7020   -0.7920 n         1 MOL      0.002039
     30 C10        -6.7260   -2.5150   -0.2810 c3        1 MOL      0.100356
     31 C11        -6.4800   -2.3060    1.2080 c         1 MOL      0.289611
     32 O6         -6.5380   -1.2620    1.8200 o         1 MOL     -0.468089
     33 C12        -5.3730   -2.2690   -1.0760 c3        1 MOL      0.002793
     34 C13        -5.1660   -0.7820   -1.3270 c         1 MOL      0.748707
     35 O7         -5.4010   -0.3190   -2.5100 o         1 MOL     -0.702245
     36 O8         -4.6040   -0.1230   -0.4230 o         1 MOL     -0.702245
     37 H13        -7.7680   -0.7160   -0.6060 hn        1 MOL     -0.006392
     38 H14        -7.0520   -3.5450   -0.4360 h1        1 MOL      0.042851
     39 H15        -5.4480   -2.9360   -1.9380 hc        1 MOL     -0.015682
     40 H16        -4.5240   -2.6290   -0.4920 hc        1 MOL     -0.015682
     41 N4         -6.2790   -3.4340    1.9210 n         1 MOL     -0.358918
     42 C14        -5.7490   -3.5450    3.3220 c3        1 MOL     -0.126732
     43 C15        -4.2460   -3.0720    3.2990 c         1 MOL      0.417192
     44 O9         -3.6780   -2.7580    4.3520 o         1 MOL     -0.542834
     45 H17        -6.2110   -4.3080    1.4180 hn        1 MOL      0.260378
     46 H18        -5.9170   -4.5480    3.7050 h1        1 MOL      0.118575
     47 H19        -6.3390   -2.9130    3.9940 h1        1 MOL      0.118575
     48 N5         -3.5340   -2.9910    2.1980 n         1 MOL     -0.180826
     49 C16        -2.1400   -2.4880    2.1330 c3        1 MOL     -0.136488
     50 C17        -2.0660   -0.9380    2.3810 c         1 MOL      0.677461
     51 O10        -3.0450   -0.2030    2.1850 o         1 MOL     -0.577359
     52 C18        -1.5240   -2.7900    0.7590 c3        1 MOL     -0.097788
     53 C19        -1.4460   -4.2360    0.4310 c         1 MOL      0.735405
     54 N6         -1.1520   -4.5090   -0.8460 n         1 MOL     -0.804796
     55 O11        -1.7400   -5.0760    1.2550 o         1 MOL     -0.562200
     56 H20        -3.9900   -3.1670    1.3090 hn        1 MOL      0.176621
     57 H21        -1.5370   -2.9620    2.9160 h1        1 MOL      0.151097
     58 H22        -0.4930   -2.4490    0.6620 hc        1 MOL      0.012307
     59 H23        -2.1190   -2.3510   -0.0340 hc        1 MOL      0.012307
     60 H24        -0.9380   -3.7730   -1.5040 hn        1 MOL      0.368608
     61 H25        -1.2480   -5.4560   -1.1810 hn        1 MOL      0.368608
     62 N7         -0.8860   -0.5510    2.8050 n         1 MOL     -0.622087
     63 C20        -0.4250    0.8370    2.7810 c3        1 MOL      0.331829
     64 C21         0.5810    1.1340    3.9290 c         1 MOL      0.557635
     65 O12         0.9580    0.2680    4.6850 o         1 MOL     -0.513216
     66 H26        -0.1690   -1.2420    2.9790 hn        1 MOL      0.342124
     67 H27        -1.2310    1.5510    2.9450 h1        1 MOL     -0.024794
     68 H28         0.0680    1.1000    1.8500 h1        1 MOL     -0.024794
     69 N8          1.0280    2.3920    4.0830 n         1 MOL     -0.552754
     70 C22         1.0180    3.3190    2.9890 c3        1 MOL      0.025552
     71 C23         1.8290    2.8220    1.7780 c         1 MOL      0.432996
     72 O13         2.8450    2.1610    1.9820 o         1 MOL     -0.474388
     73 C24         1.5360    4.6810    3.5220 c3        1 MOL      0.305830
     74 C25         1.7650    5.7170    2.4330 c3        1 MOL     -0.336466
     75 O14         0.5240    5.1750    4.4180 oh        1 MOL     -0.607489
     76 H29         1.6890    2.6030    4.8200 hn        1 MOL      0.338983
     77 H30        -0.0200    3.5320    2.7070 h1        1 MOL      0.045696
     78 H31         2.5290    4.6280    3.9780 h1        1 MOL      0.040502
     79 H32         0.5360    6.1020    4.1580 ho        1 MOL      0.371896
     80 H33         2.0910    6.6150    2.9510 hc        1 MOL      0.095919
     81 H34         2.4210    5.4760    1.6000 hc        1 MOL      0.095919
     82 H35         0.8200    5.9160    1.9240 hc        1 MOL      0.095919
     83 N9          1.4540    3.1480    0.5610 n         1 MOL     -0.457986
     84 C26         2.3380    2.8340   -0.5950 c3        1 MOL      0.031970
     85 C27         2.8350    4.1470   -1.1140 c         1 MOL      0.551929
     86 O15         2.0300    4.9800   -1.5570 o         1 MOL     -0.591863
     87 C28         1.5240    2.0700   -1.6640 c3        1 MOL      0.221732
     88 C29         1.0300    0.6750   -1.2630 c3        1 MOL     -0.170089
     89 C30         2.4980    1.9970   -2.8910 c3        1 MOL     -0.190862
     90 C31         2.1020   -0.3160   -0.8400 c3        1 MOL     -0.359402
     91 H36         0.5370    3.5430    0.3760 hn        1 MOL      0.266729
     92 H37         3.2460    2.2930   -0.3200 h1        1 MOL     -0.047779
     93 H38         0.6400    2.6610   -1.9180 hc        1 MOL     -0.000830
     94 H39         0.4690    0.3060   -2.1210 hc        1 MOL      0.022613
     95 H40         0.3650    0.6980   -0.4010 hc        1 MOL      0.022613
     96 H41         2.6030    3.0030   -3.2830 hc        1 MOL      0.048472
     97 H42         3.4620    1.5360   -2.6690 hc        1 MOL      0.048472
     98 H43         2.0080    1.3620   -3.6240 hc        1 MOL      0.048472
     99 H44         2.5170   -0.0140    0.1250 hc        1 MOL      0.174779
    100 H45         1.7570   -1.3370   -0.6640 hc        1 MOL      0.174779
    101 H46         2.9410   -0.3700   -1.5360 hc        1 MOL      0.174779
    102 N10         4.0730    4.5840   -0.8610 n         1 MOL     -0.396832
    103 C32         5.1600    3.9900   -0.0350 c3        1 MOL      0.012097
    104 C33         5.8870    2.8180   -0.8080 c         1 MOL      0.637287
    105 O16         5.9870    2.8520   -2.0480 o         1 MOL     -0.550113
    106 C34         6.2060    5.0620    0.4120 c3        1 MOL     -0.237533
    107 C35         6.6910    6.0150   -0.6390 c         1 MOL      0.786544
    108 O17         7.9200    6.0650   -0.9610 o         1 MOL     -0.729006
    109 O18         5.9070    6.8680   -1.1160 o         1 MOL     -0.729006
    110 H47         4.1770    5.5290   -1.1840 hn        1 MOL      0.274308
    111 H48         4.7370    3.5210    0.8630 h1        1 MOL      0.074471
    112 H49         7.0060    4.5490    0.9270 hc        1 MOL      0.033530
    113 H50         5.6850    5.6960    1.1290 hc        1 MOL      0.033530
    114 N11         6.3860    1.8580    0.0020 n         1 MOL     -0.481907
    115 C36         7.1290    0.6560   -0.4130 c3        1 MOL      0.127531
    116 C37         7.3960   -0.1650    0.8100 c         1 MOL      0.490377
    117 O19         7.6290    0.4380    1.8320 o         1 MOL     -0.551864
    118 C38         8.4870    1.1920   -0.9590 c3        1 MOL     -0.150887
    119 C39         9.2250    0.1360   -1.6730 ca        1 MOL      0.051091
    120 C40        10.3240   -0.4620   -1.0420 ca        1 MOL     -0.119602
    121 C41         8.8630   -0.3850   -2.9070 ca        1 MOL     -0.119602
    122 C42        11.0780   -1.4940   -1.5660 ca        1 MOL     -0.122907
    123 C43         9.5700   -1.4360   -3.5060 ca        1 MOL     -0.122907
    124 C44        10.6670   -1.9770   -2.8430 ca        1 MOL     -0.137711
    125 H51         6.2790    1.9790    1.0020 hn        1 MOL      0.300423
    126 H52         6.6000    0.0540   -1.1440 h1        1 MOL      0.016199
    127 H53         8.9490    1.6750   -0.0980 hc        1 MOL      0.083942
    128 H54         8.3150    2.0570   -1.6000 hc        1 MOL      0.083942
    129 H55        10.6490   -0.0320   -0.1100 ha        1 MOL      0.107692
    130 H56         8.0840    0.0230   -3.5430 ha        1 MOL      0.107692
    131 H57        11.9860   -1.8000   -1.0780 ha        1 MOL      0.106530
    132 H58         9.2830   -1.8820   -4.4550 ha        1 MOL      0.106530
    133 H59        11.3550   -2.6250   -3.3710 ha        1 MOL      0.089743
    134 N12         7.4570   -1.5050    0.8080 n         1 MOL     -0.210901
    135 C45         6.9820   -2.4100   -0.2090 c3        1 MOL      0.300855
    136 C46         5.4640   -2.4670   -0.3770 c         1 MOL      0.532784
    137 O20         4.8010   -1.4980   -0.1240 o         1 MOL     -0.563760
    138 C47         7.6460   -3.7470   -0.0030 c3        1 MOL      0.000639
    139 C48         8.7650   -3.3850    0.9170 c3        1 MOL     -0.110887
    140 C49         8.1900   -2.3340    1.8110 c3        1 MOL      0.043438
    141 H60         7.4280   -2.0790   -1.1520 h1        1 MOL     -0.050372
    142 H61         7.0440   -4.4910    0.5170 hc        1 MOL     -0.001672
    143 H62         7.8930   -4.2020   -0.9590 hc        1 MOL     -0.001672
    144 H63         9.0230   -4.2360    1.5490 hc        1 MOL      0.019122
    145 H64         9.6510   -3.0390    0.3900 hc        1 MOL      0.019122
    146 H65         7.5120   -2.7830    2.5390 h1        1 MOL      0.054843
    147 H66         8.9690   -1.7800    2.3480 h1        1 MOL      0.054843
    148 N13         4.8890   -3.6180   -0.8770 n         1 MOL     -0.574171
    149 C50         3.5010   -3.7240   -1.3650 c3        1 MOL      0.582294
    150 C51         3.4230   -4.7380   -2.4860 c         1 MOL      0.298883
    151 O21         2.6330   -5.7290   -2.4550 o         1 MOL     -0.530186
    152 C52         2.5150   -3.9530   -0.2150 c3        1 MOL     -0.482933
    153 C53         2.7950   -5.1920    0.7040 c3        1 MOL      0.052616
    154 C54         3.8240   -4.8110    1.7990 c         1 MOL      0.691352
    155 O22         5.0810   -5.0930    1.7780 o         1 MOL     -0.709036
    156 O23         3.3100   -4.1790    2.7620 o         1 MOL     -0.709036
    157 H67         5.4900   -4.2780   -1.3470 hn        1 MOL      0.252292
    158 H68         3.1870   -2.7940   -1.8420 h1        1 MOL     -0.089952
    159 H69         1.5350   -4.0470   -0.6760 hc        1 MOL      0.117992
    160 H70         2.3840   -3.0860    0.4400 hc        1 MOL      0.117992
    161 H71         3.3590   -5.9440    0.1490 hc        1 MOL     -0.036097
    162 H72         1.8880   -5.6160    1.1410 hc        1 MOL     -0.036097
    163 N14         4.1820   -4.5710   -3.5710 n         1 MOL     -0.343756
    164 C55         4.9110   -3.3670   -3.9660 c3        1 MOL     -0.003354
    165 H73         5.5260   -3.0250   -3.1320 h1        1 MOL      0.036344
    166 H74         5.5520   -3.5920   -4.8190 h1        1 MOL      0.036344
    167 H75         4.2020   -2.5850   -4.2390 h1        1 MOL      0.036344
    168 H76         4.2720   -5.3950   -4.1420 hn        1 MOL      0.273731
    169 Ca1        -5.3560    1.1860    1.5150 Ca        1 MOL      1.769949
    170 O24        -7.5940    2.1310    2.6900 oh        1 MOL     -0.832560
    171 O25        -5.6310    0.4300    4.2690 oh        1 MOL     -0.832560
    172 H77        -7.8420    3.0380    2.8480 ho        1 MOL      0.413685
    173 H78        -5.2610   -0.0120    5.0330 ho        1 MOL      0.413685
    174 H79        -8.3940    1.7030    2.3990 ho        1 MOL      0.413685
    175 H80        -6.5460    0.6090    4.5210 ho        1 MOL      0.413685
    176 O26        -4.4810    3.1670    3.0320 oh        1 MOL     -0.832560
    177 H81        -3.7610    2.8480    3.5730 ho        1 MOL      0.413685
    178 H82        -4.8210    3.9350    3.5040 ho        1 MOL      0.413685
    179 O27        -3.0850    2.3690    0.4880 oh        1 MOL     -0.832560
    180 H83        -2.6710    3.2200    0.5830 ho        1 MOL      0.413685
    181 H84        -2.7000    1.9930   -0.2930 ho        1 MOL      0.413685
@<TRIPOS>BOND
     1    1    2 1   
     2    1    4 1   
     3    1    5 1   
     4    1    6 1   
     5    2    3 2   
     6    2    7 1   
     7    7    8 1   
     8    7   15 1   
     9    8    9 1   
    10    8   11 1   
    11    8   16 1   
    12    9   10 2   
    13    9   19 1   
    14   11   12 1   
    15   11   17 1   
    16   11   18 1   
    17   12   13 1   
    18   12   14 1   
    19   19   20 1   
    20   19   24 1   
    21   20   21 1   
    22   20   23 1   
    23   20   25 1   
    24   21   22 2   
    25   21   29 1   
    26   23   26 1   
    27   23   27 1   
    28   23   28 1   
    29   29   30 1   
    30   29   37 1   
    31   30   31 1   
    32   30   33 1   
    33   30   38 1   
    34   31   32 2   
    35   31   41 1   
    36   33   34 1   
    37   33   39 1   
    38   33   40 1   
    39   34   35 1   
    40   34   36 1   
    41   41   42 1   
    42   41   45 1   
    43   42   43 1   
    44   42   46 1   
    45   42   47 1   
    46   43   44 2   
    47   43   48 1   
    48   48   49 1   
    49   48   56 1   
    50   49   50 1   
    51   49   52 1   
    52   49   57 1   
    53   50   51 2   
    54   50   62 1   
    55   52   53 1   
    56   52   58 1   
    57   52   59 1   
    58   53   54 1   
    59   53   55 2   
    60   54   60 1   
    61   54   61 1   
    62   62   63 1   
    63   62   66 1   
    64   63   64 1   
    65   63   67 1   
    66   63   68 1   
    67   64   65 2   
    68   64   69 1   
    69   69   70 1   
    70   69   76 1   
    71   70   71 1   
    72   70   73 1   
    73   70   77 1   
    74   71   72 2   
    75   71   83 1   
    76   73   74 1   
    77   73   75 1   
    78   73   78 1   
    79   74   80 1   
    80   74   81 1   
    81   74   82 1   
    82   75   79 1   
    83   83   84 1   
    84   83   91 1   
    85   84   85 1   
    86   84   87 1   
    87   84   92 1   
    88   85   86 2   
    89   85  102 1   
    90   87   88 1   
    91   87   89 1   
    92   87   93 1   
    93   88   90 1   
    94   88   94 1   
    95   88   95 1   
    96   89   96 1   
    97   89   97 1   
    98   89   98 1   
    99   90   99 1   
   100   90  100 1   
   101   90  101 1   
   102  102  103 1   
   103  102  110 1   
   104  103  104 1   
   105  103  106 1   
   106  103  111 1   
   107  104  105 2   
   108  104  114 1   
   109  106  107 1   
   110  106  112 1   
   111  106  113 1   
   112  107  108 1   
   113  107  109 1   
   114  114  115 1   
   115  114  125 1   
   116  115  116 1   
   117  115  118 1   
   118  115  126 1   
   119  116  117 2   
   120  116  134 1   
   121  118  119 1   
   122  118  127 1   
   123  118  128 1   
   124  119  120 ar  
   125  119  121 ar  
   126  120  122 ar  
   127  120  129 1   
   128  121  123 ar  
   129  121  130 1   
   130  122  124 ar  
   131  122  131 1   
   132  123  124 ar  
   133  123  132 1   
   134  124  133 1   
   135  134  135 1   
   136  134  140 1   
   137  135  136 1   
   138  135  138 1   
   139  135  141 1   
   140  136  137 2   
   141  136  148 1   
   142  138  139 1   
   143  138  142 1   
   144  138  143 1   
   145  139  140 1   
   146  139  144 1   
   147  139  145 1   
   148  140  146 1   
   149  140  147 1   
   150  148  149 1   
   151  148  157 1   
   152  149  150 1   
   153  149  152 1   
   154  149  158 1   
   155  150  151 2   
   156  150  163 1   
   157  152  153 1   
   158  152  159 1   
   159  152  160 1   
   160  153  154 1   
   161  153  161 1   
   162  153  162 1   
   163  154  155 1   
   164  154  156 1   
   165  163  164 1   
   166  163  168 1   
   167  164  165 1   
   168  164  166 1   
   169  164  167 1   
   170  170  172 1   
   171  170  174 1   
   172  171  173 1   
   173  171  175 1   
   174  176  177 1   
   175  176  178 1   
   176  179  180 1   
   177  179  181 1   
@<TRIPOS>SUBSTRUCTURE
     1 MOL         1 TEMP              0 ****  ****    0 ROOT
