@<TRIPOS>MOLECULE
MOL
  182   178     1     0     0
SMALL
resp


@<TRIPOS>ATOM
      1 C1          0.8400   -3.7220    6.3320 c3        1 MOL     -0.513136
      2 C2          0.8520   -3.5480    4.8060 c         1 MOL      0.681072
      3 O1         -0.1600   -3.1320    4.1680 o         1 MOL     -0.630840
      4 H1          0.1150   -4.4890    6.6050 hc        1 MOL      0.148577
      5 H2          1.8310   -4.0230    6.6720 hc        1 MOL      0.148577
      6 H3          0.5640   -2.7780    6.8030 hc        1 MOL      0.148577
      7 N1          1.9200   -3.7720    4.1010 n         1 MOL     -0.474897
      8 C3          2.1770   -3.3900    2.6970 c3        1 MOL      0.074921
      9 C4          2.6960   -4.5200    1.8590 c         1 MOL      0.521170
     10 O2          3.3000   -5.4640    2.3890 o         1 MOL     -0.548436
     11 C5          3.3240   -2.2970    2.7790 c3        1 MOL     -0.091985
     12 C6          3.5900   -1.5870    1.4730 c         1 MOL      0.396522
     13 O3          4.2650   -0.5590    1.6720 o         1 MOL     -0.574755
     14 O4          3.1830   -2.0100    0.4190 o         1 MOL     -0.574755
     15 H4          2.7370   -4.1580    4.5470 hn        1 MOL      0.280605
     16 H5          1.2820   -2.9860    2.2320 h1        1 MOL      0.070074
     17 H6          4.2500   -2.7410    3.1390 hc        1 MOL      0.047587
     18 H7          2.9330   -1.4930    3.4100 hc        1 MOL      0.047587
     19 N2          2.3140   -4.5870    0.5740 n         1 MOL     -0.398665
     20 C7          2.6060   -5.6920   -0.3670 c3        1 MOL      0.066007
     21 C8          3.9690   -5.4720   -1.0300 c         1 MOL      0.453058
     22 O5          4.5250   -6.3730   -1.6140 o         1 MOL     -0.566257
     23 C9          1.5920   -5.7320   -1.4560 c3        1 MOL     -0.064935
     24 C10         0.2780   -6.4510   -1.0510 c3        1 MOL      0.137032
     25 C11        -0.7950   -6.6670   -2.1170 c3        1 MOL     -0.050532
     26 C12        -1.7650   -7.7810   -1.7910 c3        1 MOL      0.104552
     27 N3         -2.8200   -7.9980   -2.8210 n4        1 MOL     -0.337066
     28 H8          1.9750   -3.7190    0.1890 hn        1 MOL      0.296049
     29 H9          2.7860   -6.6610    0.1020 h1        1 MOL      0.103545
     30 H10         1.9290   -6.2520   -2.3580 hc        1 MOL      0.034654
     31 H11         1.3800   -4.6840   -1.6680 hc        1 MOL      0.034654
     32 H12        -0.1230   -5.8940   -0.2030 hc        1 MOL     -0.043003
     33 H13         0.5960   -7.4270   -0.6820 hc        1 MOL     -0.043003
     34 H14        -0.2550   -6.9500   -3.0130 hc        1 MOL      0.018079
     35 H15        -1.3120   -5.7020   -2.1850 hc        1 MOL      0.018079
     36 H16        -2.1810   -7.4530   -0.8480 hx        1 MOL      0.060779
     37 H17        -1.2030   -8.7140   -1.6580 hx        1 MOL      0.060779
     38 H18        -3.3380   -7.1310   -2.9370 hn        1 MOL      0.271035
     39 H19        -2.4180   -8.3710   -3.6650 hn        1 MOL      0.271035
     40 H20        -3.5470   -8.6420   -2.5420 hn        1 MOL      0.271035
     41 N4          4.4550   -4.2680   -1.1920 n         1 MOL     -0.280058
     42 C13         5.8060   -3.9640   -1.7090 c3        1 MOL      0.242239
     43 C14         6.7540   -3.3560   -0.6710 c         1 MOL      0.275061
     44 O6          7.9370   -3.7890   -0.6640 o         1 MOL     -0.532448
     45 C15         5.7600   -3.0750   -2.9670 c3        1 MOL     -0.509073
     46 C16         4.7610   -1.8650   -2.9250 c         1 MOL      0.854211
     47 O7          3.8910   -1.6220   -3.8310 o         1 MOL     -0.773194
     48 O8          4.7970   -1.1400   -1.9430 o         1 MOL     -0.773194
     49 H21         3.9230   -3.6050   -0.6420 hn        1 MOL      0.197770
     50 H22         6.2350   -4.9110   -2.0550 h1        1 MOL      0.098731
     51 H23         5.7180   -3.6890   -3.8760 hc        1 MOL      0.139190
     52 H24         6.7340   -2.6100   -3.1120 hc        1 MOL      0.139190
     53 N5          6.3180   -2.5380    0.2850 n         1 MOL     -0.006173
     54 C17         7.1150   -1.7120    1.2520 c3        1 MOL     -0.299818
     55 C18         7.3100   -0.2510    0.7670 c         1 MOL      0.637327
     56 O9          7.9040    0.5550    1.4830 o         1 MOL     -0.572647
     57 H25         5.3560   -2.2680    0.1890 hn        1 MOL      0.021141
     58 H26         8.0620   -2.2160    1.4660 h1        1 MOL      0.157599
     59 H27         6.6040   -1.7470    2.2150 h1        1 MOL      0.157599
     60 N6          6.9300    0.1430   -0.4750 n         1 MOL     -0.390968
     61 C19         7.1610    1.4330   -1.0460 c3        1 MOL      0.050029
     62 C20         5.9890    2.4180   -0.6990 c         1 MOL      0.529444
     63 O10         4.8370    1.9760   -0.7880 o         1 MOL     -0.578006
     64 C21         7.4270    1.4420   -2.5660 c3        1 MOL     -0.097274
     65 C22         7.8690    2.8060   -2.9730 c         1 MOL      0.536084
     66 N7          9.1280    3.0610   -2.8070 n         1 MOL     -0.707749
     67 O11         7.1080    3.6750   -3.4340 o         1 MOL     -0.559803
     68 H28         6.4320   -0.5210   -1.0510 hn        1 MOL      0.269957
     69 H29         7.9990    1.8430   -0.4760 h1        1 MOL      0.011784
     70 H30         6.5120    1.1550   -3.0810 hc        1 MOL      0.066455
     71 H31         8.1630    0.6690   -2.7730 hc        1 MOL      0.066455
     72 H32         9.7620    2.4180   -2.3610 hn        1 MOL      0.353843
     73 H33         9.2910    4.0430   -3.0220 hn        1 MOL      0.353843
     74 N8          6.2930    3.6550   -0.3440 n         1 MOL     -0.227605
     75 C23         5.3750    4.7790   -0.2790 c3        1 MOL     -0.310991
     76 C24         4.1840    4.6410    0.6630 c         1 MOL      0.650511
     77 O12         4.3080    4.3800    1.8480 o         1 MOL     -0.497384
     78 H34         7.2630    3.8900   -0.2250 hn        1 MOL      0.258032
     79 H35         5.2230    5.0200   -1.3280 h1        1 MOL      0.136679
     80 H36         5.9680    5.5820    0.1590 h1        1 MOL      0.136679
     81 N9          2.9500    4.7090    0.0930 n         1 MOL     -0.638610
     82 C25         1.7380    4.6100    0.8860 c3        1 MOL      0.119362
     83 C26         1.5340    3.1350    1.1850 c         1 MOL      0.848760
     84 O13         2.0660    2.1520    0.6440 o         1 MOL     -0.696378
     85 C27         0.5370    5.2410    0.2510 c3        1 MOL     -0.406572
     86 C28         0.4820    6.7410   -0.0320 ca        1 MOL      0.127487
     87 C29         0.9190    7.6060    0.9370 ca        1 MOL     -0.113946
     88 C30         0.0530    7.1930   -1.3110 ca        1 MOL     -0.113946
     89 C31         0.9530    9.0600    0.6950 ca        1 MOL     -0.364513
     90 C32         0.1270    8.5470   -1.6010 ca        1 MOL     -0.364513
     91 C33         0.5670    9.4880   -0.6140 ca        1 MOL      0.427643
     92 O14         0.4890   10.8070   -0.8660 oh        1 MOL     -0.492722
     93 H37         2.8750    4.6680   -0.9190 hn        1 MOL      0.377940
     94 H38         1.9680    5.0780    1.8410 h1        1 MOL      0.076191
     95 H39        -0.2930    5.1840    0.9490 hc        1 MOL      0.117274
     96 H40         0.3660    4.7190   -0.6960 hc        1 MOL      0.117274
     97 H41         1.3020    7.2170    1.8720 ha        1 MOL      0.142598
     98 H42        -0.3720    6.5610   -2.0780 ha        1 MOL      0.142598
     99 H43         1.2070    9.8040    1.4390 ha        1 MOL      0.185589
    100 H44        -0.1510    8.8340   -2.6030 ha        1 MOL      0.185589
    101 H45         0.7500   11.3960   -0.1480 ho        1 MOL      0.374911
    102 N10         0.6000    2.9270    2.0590 n         1 MOL     -0.853091
    103 C34         0.0500    1.6620    2.5930 c3        1 MOL      0.356949
    104 C35        -0.1950    0.5860    1.5110 c         1 MOL      0.311946
    105 O15         0.6980   -0.1010    1.0120 o         1 MOL     -0.384851
    106 C36         1.0720    1.1490    3.5770 c3        1 MOL      0.084633
    107 C37         0.5800   -0.1210    4.2590 c3        1 MOL     -0.028262
    108 C38         1.3490    2.1770    4.7370 c3        1 MOL     -0.459273
    109 C39        -0.7730    0.0630    4.9870 c3        1 MOL     -0.072976
    110 H46         0.0630    3.6850    2.4530 hn        1 MOL      0.371512
    111 H47        -0.8600    1.9830    3.0980 h1        1 MOL      0.027042
    112 H48         1.9980    0.9800    3.0110 hc        1 MOL      0.104145
    113 H49         1.2460   -0.3840    5.0740 hc        1 MOL      0.049902
    114 H50         0.6150   -0.9380    3.5270 hc        1 MOL      0.049902
    115 H51         0.4740    2.6980    5.1250 hc        1 MOL      0.117112
    116 H52         1.9180    1.7070    5.5400 hc        1 MOL      0.117112
    117 H53         2.0220    2.9610    4.3860 hc        1 MOL      0.117112
    118 H54        -0.8610    1.0860    5.3580 hc        1 MOL      0.013656
    119 H55        -1.5920   -0.1090    4.2900 hc        1 MOL      0.013656
    120 H56        -0.9080   -0.5270    5.8970 hc        1 MOL      0.013656
    121 N11        -1.4870    0.3530    1.2800 n         1 MOL     -0.397867
    122 C40        -1.8240   -0.7780    0.4300 c3        1 MOL     -0.036256
    123 C41        -3.3170   -0.8460    0.0030 c         1 MOL      0.606294
    124 O16        -3.5820   -1.5120   -0.9950 o         1 MOL     -0.539767
    125 C42        -1.4960   -2.0840    1.1620 c3        1 MOL     -0.037172
    126 O17        -0.7300   -2.8750    0.4560 oh        1 MOL     -0.638127
    127 H57        -2.2120    0.9290    1.6620 hn        1 MOL      0.246669
    128 H58        -1.2510   -0.6720   -0.4920 h1        1 MOL      0.113571
    129 H59        -2.4050   -2.6360    1.3800 h1        1 MOL      0.085121
    130 H60        -1.0800   -1.9340    2.1620 h1        1 MOL      0.085121
    131 H61        -1.2460   -3.6920    0.4380 ho        1 MOL      0.494665
    132 N12        -4.2850   -0.0920    0.6010 n         1 MOL     -0.573405
    133 C43        -5.6570    0.0850    0.1910 c3        1 MOL      0.022799
    134 C44        -5.7840    0.8660   -1.1350 c         1 MOL      0.757393
    135 O18        -4.9000    1.5780   -1.5110 o         1 MOL     -0.584817
    136 C45        -6.4080    0.8110    1.3440 c3        1 MOL     -0.285427
    137 H62        -4.0490    0.3970    1.4540 hn        1 MOL      0.324776
    138 H63        -6.0420   -0.9230    0.0390 h1        1 MOL      0.133871
    139 H64        -7.4810    0.8800    1.1540 hc        1 MOL      0.100195
    140 H65        -6.2800    0.2620    2.2670 hc        1 MOL      0.100195
    141 H66        -6.0400    1.8410    1.3800 hc        1 MOL      0.100195
    142 N13        -6.8480    0.7690   -1.9400 n         1 MOL     -0.761695
    143 C46        -8.0410   -0.0200   -1.7060 c3        1 MOL      0.468167
    144 C47        -9.2830    0.7320   -2.2110 c         1 MOL      0.401018
    145 O19        -9.3830    1.1420   -3.3400 o         1 MOL     -0.519202
    146 C48        -7.8820   -1.3930   -2.3310 c3        1 MOL     -0.214903
    147 H67        -6.8520    1.2630   -2.8260 hn        1 MOL      0.360882
    148 H68        -8.1200   -0.1340   -0.6250 h1        1 MOL     -0.067787
    149 H69        -7.6110   -1.2710   -3.3830 hc        1 MOL      0.056171
    150 H70        -7.2180   -2.0090   -1.7310 hc        1 MOL      0.056171
    151 H71        -8.8600   -1.8560   -2.3250 hc        1 MOL      0.056171
    152 N14       -10.4290    0.7880   -1.4940 n         1 MOL     -0.490360
    153 C49       -10.7460    0.2730   -0.1140 c3        1 MOL     -0.013709
    154 C50       -10.2830    1.2370    0.9830 c         1 MOL      0.355214
    155 O20        -9.9540    0.8040    2.1040 o         1 MOL     -0.490470
    156 C51       -12.2680    0.0250   -0.0500 c3        1 MOL      0.077469
    157 C52       -12.6950   -1.1430   -0.9860 c3        1 MOL     -0.111149
    158 C53       -14.1250   -1.5560   -0.8710 c         1 MOL      0.622816
    159 O21       -14.5600   -1.9690    0.2550 o         1 MOL     -0.634772
    160 O22       -14.8500   -1.5330   -1.9610 o         1 MOL     -0.634772
    161 H72       -11.2070    1.1760   -2.0130 hn        1 MOL      0.353835
    162 H73       -10.2170   -0.6610    0.0840 h1        1 MOL      0.094384
    163 H74       -12.8010    0.9350   -0.3230 hc        1 MOL      0.010756
    164 H75       -12.4800   -0.2870    0.9710 hc        1 MOL      0.010756
    165 H76       -12.0100   -1.9740   -0.7980 hc        1 MOL      0.007991
    166 H77       -12.4820   -0.7360   -1.9730 hc        1 MOL      0.007991
    167 N15       -10.2030    2.5440    0.7060 n         1 MOL     -0.245585
    168 C54        -9.4520    3.4860    1.5840 c3        1 MOL     -0.171484
    169 H78       -10.1060    3.8350    2.3840 h1        1 MOL      0.093784
    170 H79        -8.5920    2.9730    2.0170 h1        1 MOL      0.093784
    171 H80        -9.1100    4.3380    0.9970 h1        1 MOL      0.093784
    172 H81       -10.6740    2.8770   -0.1190 hn        1 MOL      0.239191
    173 Ca1         2.7600    0.2770   -0.9170 Ca        1 MOL      1.778268
    174 O23         0.6630    1.4850   -2.0550 oh        1 MOL     -0.862912
    175 H82        -0.1990    1.3930   -1.6410 ho        1 MOL      0.424876
    176 H83         0.5480    2.1730   -2.7070 ho        1 MOL      0.424876
    177 O24         3.3060    1.1940   -3.5740 oh        1 MOL     -0.862912
    178 H84         2.9400    1.6780   -4.3130 ho        1 MOL      0.424876
    179 H85         3.7060    0.4190   -3.9640 ho        1 MOL      0.424876
    180 O25         1.3000   -1.3890   -2.2690 oh        1 MOL     -0.862912
    181 H86         1.6450   -1.9700   -2.9500 ho        1 MOL      0.424876
    182 H87         0.3810   -1.2580   -2.5110 ho        1 MOL      0.424876
@<TRIPOS>BOND
     1    1    2 1   
     2    1    4 1   
     3    1    5 1   
     4    1    6 1   
     5    2    3 2   
     6    2    7 1   
     7    7    8 1   
     8    7   15 1   
     9    8    9 1   
    10    8   11 1   
    11    8   16 1   
    12    9   10 2   
    13    9   19 1   
    14   11   12 1   
    15   11   17 1   
    16   11   18 1   
    17   12   13 1   
    18   12   14 1   
    19   19   20 1   
    20   19   28 1   
    21   20   21 1   
    22   20   23 1   
    23   20   29 1   
    24   21   22 2   
    25   21   41 1   
    26   23   24 1   
    27   23   30 1   
    28   23   31 1   
    29   24   25 1   
    30   24   32 1   
    31   24   33 1   
    32   25   26 1   
    33   25   34 1   
    34   25   35 1   
    35   26   27 1   
    36   26   36 1   
    37   26   37 1   
    38   27   38 1   
    39   27   39 1   
    40   27   40 1   
    41   41   42 1   
    42   41   49 1   
    43   42   43 1   
    44   42   45 1   
    45   42   50 1   
    46   43   44 2   
    47   43   53 1   
    48   45   46 1   
    49   45   51 1   
    50   45   52 1   
    51   46   47 1   
    52   46   48 1   
    53   53   54 1   
    54   53   57 1   
    55   54   55 1   
    56   54   58 1   
    57   54   59 1   
    58   55   56 2   
    59   55   60 1   
    60   60   61 1   
    61   60   68 1   
    62   61   62 1   
    63   61   64 1   
    64   61   69 1   
    65   62   63 2   
    66   62   74 1   
    67   64   65 1   
    68   64   70 1   
    69   64   71 1   
    70   65   66 1   
    71   65   67 2   
    72   66   72 1   
    73   66   73 1   
    74   74   75 1   
    75   74   78 1   
    76   75   76 1   
    77   75   79 1   
    78   75   80 1   
    79   76   77 2   
    80   76   81 1   
    81   81   82 1   
    82   81   93 1   
    83   82   83 1   
    84   82   85 1   
    85   82   94 1   
    86   83   84 2   
    87   83  102 1   
    88   85   86 1   
    89   85   95 1   
    90   85   96 1   
    91   86   87 ar  
    92   86   88 ar  
    93   87   89 ar  
    94   87   97 1   
    95   88   90 ar  
    96   88   98 1   
    97   89   91 ar  
    98   89   99 1   
    99   90   91 ar  
   100   90  100 1   
   101   91   92 1   
   102   92  101 1   
   103  102  103 1   
   104  102  110 1   
   105  103  104 1   
   106  103  106 1   
   107  103  111 1   
   108  104  105 2   
   109  104  121 1   
   110  106  107 1   
   111  106  108 1   
   112  106  112 1   
   113  107  109 1   
   114  107  113 1   
   115  107  114 1   
   116  108  115 1   
   117  108  116 1   
   118  108  117 1   
   119  109  118 1   
   120  109  119 1   
   121  109  120 1   
   122  121  122 1   
   123  121  127 1   
   124  122  123 1   
   125  122  125 1   
   126  122  128 1   
   127  123  124 2   
   128  123  132 1   
   129  125  126 1   
   130  125  129 1   
   131  125  130 1   
   132  126  131 1   
   133  132  133 1   
   134  132  137 1   
   135  133  134 1   
   136  133  136 1   
   137  133  138 1   
   138  134  135 2   
   139  134  142 1   
   140  136  139 1   
   141  136  140 1   
   142  136  141 1   
   143  142  143 1   
   144  142  147 1   
   145  143  144 1   
   146  143  146 1   
   147  143  148 1   
   148  144  145 2   
   149  144  152 1   
   150  146  149 1   
   151  146  150 1   
   152  146  151 1   
   153  152  153 1   
   154  152  161 1   
   155  153  154 1   
   156  153  156 1   
   157  153  162 1   
   158  154  155 2   
   159  154  167 1   
   160  156  157 1   
   161  156  163 1   
   162  156  164 1   
   163  157  158 1   
   164  157  165 1   
   165  157  166 1   
   166  158  159 1   
   167  158  160 1   
   168  167  168 1   
   169  167  172 1   
   170  168  169 1   
   171  168  170 1   
   172  168  171 1   
   173  174  175 1   
   174  174  176 1   
   175  177  178 1   
   176  177  179 1   
   177  180  181 1   
   178  180  182 1   
@<TRIPOS>SUBSTRUCTURE
     1 MOL         1 TEMP              0 ****  ****    0 ROOT
