@<TRIPOS>MOLECULE
MOL
  181   177     1     0     0
SMALL
resp


@<TRIPOS>ATOM
      1 C1         -8.5510   -6.9010   -2.5420 c3        1 MOL     -0.300285
      2 C2         -7.8460   -5.8650   -1.6840 c         1 MOL      0.693227
      3 O1         -6.6780   -5.6680   -1.8070 o         1 MOL     -0.579352
      4 H1         -9.4340   -6.4530   -3.0000 hc        1 MOL      0.065468
      5 H2         -7.8750   -7.2490   -3.3230 hc        1 MOL      0.065468
      6 H3         -8.8540   -7.7440   -1.9210 hc        1 MOL      0.065468
      7 N1         -8.4390   -5.1190   -0.8220 n         1 MOL     -0.446018
      8 C3         -9.8470   -5.1040   -0.4820 c3        1 MOL     -0.014182
      9 C4         -9.9030   -4.8680    1.0510 c         1 MOL      0.547982
     10 O2         -9.0140   -5.3090    1.6990 o         1 MOL     -0.467120
     11 C5        -10.5760   -4.0690   -1.3030 c3        1 MOL      0.010542
     12 C6        -10.0980   -2.5720   -1.2260 c         1 MOL      0.665149
     13 O3        -10.4500   -1.8470   -0.2520 o         1 MOL     -0.700239
     14 O4         -9.4150   -2.1100   -2.1390 o         1 MOL     -0.700239
     15 H4         -7.8170   -4.5600   -0.2410 hn        1 MOL      0.325006
     16 H5        -10.4310   -5.9800   -0.7460 h1        1 MOL      0.044751
     17 H6        -11.6190   -4.0230   -0.9840 hc        1 MOL     -0.031820
     18 H7        -10.6090   -4.2820   -2.3620 hc        1 MOL     -0.031820
     19 N2        -10.9580   -4.2070    1.5460 n         1 MOL     -0.599746
     20 C7        -11.1280   -3.4800    2.8230 c3        1 MOL      0.406789
     21 C8         -9.9420   -2.8280    3.2800 c         1 MOL      0.392115
     22 O5         -9.6010   -2.8320    4.4690 o         1 MOL     -0.555150
     23 C9        -11.8960   -4.3200    3.8140 c3        1 MOL     -0.297585
     24 H8        -11.7340   -4.0720    0.9140 hn        1 MOL      0.314101
     25 H9        -11.8960   -2.7360    2.6610 h1        1 MOL      0.002369
     26 H10       -11.5410   -5.3520    3.7880 hc        1 MOL      0.063114
     27 H11       -11.9000   -3.9070    4.8200 hc        1 MOL      0.063114
     28 H12       -12.9440   -4.4090    3.5270 hc        1 MOL      0.063114
     29 N3         -9.2910   -2.0380    2.4340 n         1 MOL     -0.048698
     30 C10        -8.1250   -1.1810    2.6880 c3        1 MOL      0.009350
     31 C11        -8.3920    0.2630    2.1230 c         1 MOL      0.419974
     32 O6         -9.3980    0.5780    1.4300 o         1 MOL     -0.511677
     33 C12        -6.8390   -1.8570    2.0950 c3        1 MOL     -0.303831
     34 C13        -6.8400   -2.1670    0.6380 c         1 MOL      0.744589
     35 O7         -7.2530   -1.3550   -0.2060 o         1 MOL     -0.651749
     36 O8         -6.3260   -3.3150    0.3690 o         1 MOL     -0.651749
     37 H13        -9.5740   -2.0270    1.4660 hn        1 MOL     -0.122471
     38 H14        -8.0310   -1.0750    3.7680 h1        1 MOL      0.064956
     39 H15        -6.7640   -2.7800    2.6640 hc        1 MOL      0.095871
     40 H16        -5.9540   -1.2530    2.2790 hc        1 MOL      0.095871
     41 N4         -7.4620    1.1610    2.6090 n         1 MOL     -0.377827
     42 C14        -7.3940    2.6240    2.3560 c3        1 MOL     -0.168257
     43 C15        -7.0510    2.8860    0.7810 c         1 MOL      0.620612
     44 O9         -7.5820    2.2100   -0.0600 o         1 MOL     -0.589669
     45 H17        -6.7260    0.8330    3.2340 hn        1 MOL      0.309967
     46 H18        -6.6650    3.1380    2.9720 h1        1 MOL      0.115393
     47 H19        -8.3140    3.1920    2.5000 h1        1 MOL      0.115393
     48 N5         -6.2020    3.8630    0.4660 n         1 MOL     -0.538105
     49 C16        -5.7680    4.1450   -0.9410 c3        1 MOL      0.274136
     50 C17        -4.2380    4.0230   -1.1720 c         1 MOL      0.434317
     51 O10        -3.7780    4.1410   -2.3620 o         1 MOL     -0.526679
     52 C18        -6.2440    5.5180   -1.5190 c3        1 MOL     -0.329033
     53 C19        -7.7560    5.8120   -1.3490 c         1 MOL      0.760889
     54 N6         -8.0680    6.8350   -0.5500 n         1 MOL     -0.859628
     55 O11        -8.5880    5.0260   -1.7130 o         1 MOL     -0.597413
     56 H20        -5.7120    4.4010    1.1680 hn        1 MOL      0.273378
     57 H21        -6.2360    3.3850   -1.5630 h1        1 MOL      0.034673
     58 H22        -6.0880    5.5450   -2.5930 hc        1 MOL      0.085536
     59 H23        -5.6910    6.3370   -1.0790 hc        1 MOL      0.085536
     60 H24        -7.3180    7.4810   -0.3260 hn        1 MOL      0.389486
     61 H25        -8.9620    6.8240   -0.0720 hn        1 MOL      0.389486
     62 N7         -3.4180    3.6490   -0.1770 n         1 MOL     -0.346195
     63 C20        -2.0500    3.5930   -0.1880 c3        1 MOL      0.013392
     64 C21        -1.4190    4.0110    1.1630 c         1 MOL      0.609403
     65 O12        -2.1250    4.0550    2.1950 o         1 MOL     -0.590357
     66 H26        -3.9440    3.3290    0.6170 hn        1 MOL      0.231118
     67 H27        -1.7020    4.3240   -0.9270 h1        1 MOL      0.076094
     68 H28        -1.6540    2.5990   -0.4290 h1        1 MOL      0.076094
     69 N8         -0.1520    4.3790    1.1860 n         1 MOL     -0.617833
     70 C22         0.8010    4.2210    0.0560 c3        1 MOL      0.062091
     71 C23         2.2280    3.6460    0.4410 c         1 MOL      0.621520
     72 O13         2.8900    4.0470    1.3860 o         1 MOL     -0.539657
     73 C24         1.2020    5.5430   -0.5940 c3        1 MOL      0.441273
     74 C25         2.3520    5.7420   -1.5880 c3        1 MOL     -0.319199
     75 O14         0.0520    6.0480   -1.2020 oh        1 MOL     -0.646339
     76 H29         0.1480    4.5600    2.1340 hn        1 MOL      0.361787
     77 H30         0.3740    3.5260   -0.6570 h1        1 MOL      0.033789
     78 H31         1.4980    6.1670    0.2480 h1        1 MOL     -0.036649
     79 H32         0.0670    6.9850   -0.9850 ho        1 MOL      0.375365
     80 H33         3.3160    5.7700   -1.0780 hc        1 MOL      0.088623
     81 H34         2.3430    4.8470   -2.2050 hc        1 MOL      0.088623
     82 H35         2.3690    6.6990   -2.1230 hc        1 MOL      0.088623
     83 N9          2.6480    2.6480   -0.3410 n         1 MOL     -0.644106
     84 C26         3.9570    1.9630   -0.1650 c3        1 MOL      0.157819
     85 C27         5.0090    2.8800   -0.8650 c         1 MOL      0.649865
     86 O15         4.7010    3.4830   -1.8870 o         1 MOL     -0.599645
     87 C28         4.0150    0.4570   -0.6870 c3        1 MOL     -0.052639
     88 C29         3.9480    0.2130   -2.1370 c3        1 MOL     -0.182280
     89 C30         2.7620   -0.2590   -0.0490 c3        1 MOL     -0.428829
     90 C31         5.2900    0.3440   -2.8180 c3        1 MOL     -0.000036
     91 H36         2.2200    2.5500   -1.2460 hn        1 MOL      0.329709
     92 H37         4.1580    2.0340    0.9090 h1        1 MOL      0.167349
     93 H38         4.8560   -0.0710   -0.2400 hc        1 MOL      0.112829
     94 H39         3.2760    0.8830   -2.6700 hc        1 MOL      0.071320
     95 H40         3.6640   -0.8310   -2.2510 hc        1 MOL      0.071320
     96 H41         3.0190   -0.1940    1.0080 hc        1 MOL      0.120362
     97 H42         1.8310    0.2580   -0.2610 hc        1 MOL      0.120362
     98 H43         2.6480   -1.2880   -0.3880 hc        1 MOL      0.120362
     99 H44         6.0110   -0.1660   -2.1830 hc        1 MOL      0.004935
    100 H45         5.2770   -0.0600   -3.8380 hc        1 MOL      0.004935
    101 H46         5.5210    1.3840   -3.0270 hc        1 MOL      0.004935
    102 N10         6.2480    2.9030   -0.3790 n         1 MOL     -0.638211
    103 C32         6.8270    2.1730    0.7370 c3        1 MOL      0.096069
    104 C33         8.2670    1.7780    0.4210 c         1 MOL      0.682569
    105 O16         8.8110    2.1360   -0.6150 o         1 MOL     -0.573155
    106 C34         6.6770    2.9410    2.0100 c3        1 MOL     -0.114656
    107 C35         6.7750    4.5010    1.9430 c         1 MOL      0.737090
    108 O17         7.4820    5.0640    1.0810 o         1 MOL     -0.707356
    109 O18         6.3350    5.1520    2.9120 o         1 MOL     -0.707356
    110 H47         6.8400    3.5690   -0.8430 hn        1 MOL      0.342259
    111 H48         6.2620    1.2470    0.8570 h1        1 MOL     -0.013897
    112 H49         7.5050    2.6880    2.6600 hc        1 MOL     -0.008070
    113 H50         5.7430    2.6680    2.4870 hc        1 MOL     -0.008070
    114 N11         8.9050    0.9090    1.2050 n         1 MOL     -0.545392
    115 C36        10.1660    0.2990    0.7420 c3        1 MOL      0.269781
    116 C37        10.3560   -1.1040    1.4750 c         1 MOL      0.156072
    117 O19        10.0440   -1.1130    2.6760 o         1 MOL     -0.488906
    118 C38        11.3730    1.2270    1.0610 c3        1 MOL     -0.265821
    119 C39        12.7180    0.5760    0.7630 ca        1 MOL      0.080229
    120 C40        13.2950   -0.3400    1.6740 ca        1 MOL     -0.135797
    121 C41        13.4740    0.9580   -0.3430 ca        1 MOL     -0.135797
    122 C42        14.5650   -0.9550    1.4200 ca        1 MOL     -0.144219
    123 C43        14.6890    0.3800   -0.6300 ca        1 MOL     -0.144219
    124 C44        15.2290   -0.5760    0.2290 ca        1 MOL     -0.099792
    125 H51         8.4540    0.5620    2.0370 hn        1 MOL      0.317873
    126 H52        10.0210    0.1400   -0.3320 h1        1 MOL      0.025529
    127 H53        11.3020    1.3440    2.1420 hc        1 MOL      0.118827
    128 H54        11.2860    2.2250    0.6470 hc        1 MOL      0.118827
    129 H55        12.8650   -0.4500    2.6660 ha        1 MOL      0.122574
    130 H56        13.1820    1.8100   -0.9380 ha        1 MOL      0.122574
    131 H57        15.0460   -1.5710    2.1650 ha        1 MOL      0.109860
    132 H58        15.2580    0.6550   -1.5080 ha        1 MOL      0.109860
    133 H59        16.2430   -0.9080    0.0780 ha        1 MOL      0.082407
    134 N12        10.9760   -2.1360    0.8870 n         1 MOL      0.234648
    135 C45        11.2070   -2.2650   -0.5360 c3        1 MOL      0.077217
    136 C46         9.8640   -2.6480   -1.2800 c         1 MOL      0.326377
    137 O20         9.7570   -2.2910   -2.4370 o         1 MOL     -0.518094
    138 C47        12.2010   -3.4410   -0.6140 c3        1 MOL     -0.058097
    139 C48        12.4040   -4.0210    0.8160 c3        1 MOL     -0.074139
    140 C49        11.2650   -3.3630    1.6100 c3        1 MOL     -0.220089
    141 H60        11.7410   -1.3940   -0.9340 h1        1 MOL      0.028130
    142 H61        11.8280   -4.1730   -1.3360 hc        1 MOL      0.023008
    143 H62        13.1720   -3.0700   -0.9340 hc        1 MOL      0.023008
    144 H63        12.4000   -5.1120    0.7910 hc        1 MOL      0.041636
    145 H64        13.3140   -3.6030    1.2670 hc        1 MOL      0.041636
    146 H65        10.3810   -4.0100    1.5480 h1        1 MOL      0.092643
    147 H66        11.5520   -3.1850    2.6490 h1        1 MOL      0.092643
    148 N13         8.8680   -3.3000   -0.6480 n         1 MOL     -0.250583
    149 C50         7.7190   -3.9150   -1.3010 c3        1 MOL      0.268264
    150 C51         8.1300   -5.2890   -1.8940 c         1 MOL      0.359893
    151 O21         8.1540   -6.2600   -1.1540 o         1 MOL     -0.556276
    152 C52         6.6430   -4.0800   -0.3180 c3        1 MOL     -0.041532
    153 C53         6.0790   -2.7820    0.2030 c3        1 MOL     -0.137777
    154 C54         5.2820   -3.0800    1.4560 c         1 MOL      0.722612
    155 O22         5.5350   -2.4450    2.5460 o         1 MOL     -0.718177
    156 O23         4.4280   -3.9570    1.4440 o         1 MOL     -0.718177
    157 H67         9.0830   -3.6240    0.2800 hn        1 MOL      0.224477
    158 H68         7.3350   -3.3310   -2.1360 h1        1 MOL      0.026026
    159 H69         7.0300   -4.5740    0.5740 hc        1 MOL      0.027144
    160 H70         5.8050   -4.6970   -0.6460 hc        1 MOL      0.027144
    161 H71         5.4080   -2.2880   -0.5020 hc        1 MOL     -0.024456
    162 H72         6.9460   -2.1400    0.4150 hc        1 MOL     -0.024456
    163 N14         8.3860   -5.4490   -3.2080 n         1 MOL     -0.320113
    164 C55         8.2940   -4.4240   -4.2620 c3        1 MOL     -0.084567
    165 H73         7.2560   -4.1120   -4.3750 h1        1 MOL      0.058474
    166 H74         8.9030   -3.5630   -3.9870 h1        1 MOL      0.058474
    167 H75         8.6530   -4.8370   -5.2050 h1        1 MOL      0.058474
    168 H76         8.4600   -6.4200   -3.4870 hn        1 MOL      0.257063
    169 Ca1        -9.1930    0.4420   -1.2420 Ca        1 MOL      1.788907
    170 O24       -10.4670    0.3390   -3.6230 oh        1 MOL     -0.843140
    171 H77       -11.1530   -0.2190   -3.9930 ho        1 MOL      0.411566
    172 H78       -10.4870    1.1330   -4.1420 ho        1 MOL      0.411566
    173 O25        -6.8570    0.6140   -2.5540 oh        1 MOL     -0.843140
    174 H79        -6.1120    0.2410   -2.0840 ho        1 MOL      0.411566
    175 H80        -6.4630    1.1550   -3.2380 ho        1 MOL      0.411566
    176 O26       -11.8290    1.0220   -0.8870 oh        1 MOL     -0.843140
    177 H81       -12.4820    0.3940   -1.2100 ho        1 MOL      0.411566
    178 H82       -12.1950    1.3500   -0.0680 ho        1 MOL      0.411566
    179 O27        -9.7270    2.7850   -2.2240 oh        1 MOL     -0.843140
    180 H83        -9.8700    3.1320   -3.1120 ho        1 MOL      0.411566
    181 H84        -9.3000    3.5060   -1.7570 ho        1 MOL      0.411566
@<TRIPOS>BOND
     1    1    2 1   
     2    1    4 1   
     3    1    5 1   
     4    1    6 1   
     5    2    3 2   
     6    2    7 1   
     7    7    8 1   
     8    7   15 1   
     9    8    9 1   
    10    8   11 1   
    11    8   16 1   
    12    9   10 2   
    13    9   19 1   
    14   11   12 1   
    15   11   17 1   
    16   11   18 1   
    17   12   13 1   
    18   12   14 1   
    19   19   20 1   
    20   19   24 1   
    21   20   21 1   
    22   20   23 1   
    23   20   25 1   
    24   21   22 2   
    25   21   29 1   
    26   23   26 1   
    27   23   27 1   
    28   23   28 1   
    29   29   30 1   
    30   29   37 1   
    31   30   31 1   
    32   30   33 1   
    33   30   38 1   
    34   31   32 2   
    35   31   41 1   
    36   33   34 1   
    37   33   39 1   
    38   33   40 1   
    39   34   35 1   
    40   34   36 1   
    41   41   42 1   
    42   41   45 1   
    43   42   43 1   
    44   42   46 1   
    45   42   47 1   
    46   43   44 2   
    47   43   48 1   
    48   48   49 1   
    49   48   56 1   
    50   49   50 1   
    51   49   52 1   
    52   49   57 1   
    53   50   51 2   
    54   50   62 1   
    55   52   53 1   
    56   52   58 1   
    57   52   59 1   
    58   53   54 1   
    59   53   55 2   
    60   54   60 1   
    61   54   61 1   
    62   62   63 1   
    63   62   66 1   
    64   63   64 1   
    65   63   67 1   
    66   63   68 1   
    67   64   65 2   
    68   64   69 1   
    69   69   70 1   
    70   69   76 1   
    71   70   71 1   
    72   70   73 1   
    73   70   77 1   
    74   71   72 2   
    75   71   83 1   
    76   73   74 1   
    77   73   75 1   
    78   73   78 1   
    79   74   80 1   
    80   74   81 1   
    81   74   82 1   
    82   75   79 1   
    83   83   84 1   
    84   83   91 1   
    85   84   85 1   
    86   84   87 1   
    87   84   92 1   
    88   85   86 2   
    89   85  102 1   
    90   87   88 1   
    91   87   89 1   
    92   87   93 1   
    93   88   90 1   
    94   88   94 1   
    95   88   95 1   
    96   89   96 1   
    97   89   97 1   
    98   89   98 1   
    99   90   99 1   
   100   90  100 1   
   101   90  101 1   
   102  102  103 1   
   103  102  110 1   
   104  103  104 1   
   105  103  106 1   
   106  103  111 1   
   107  104  105 2   
   108  104  114 1   
   109  106  107 1   
   110  106  112 1   
   111  106  113 1   
   112  107  108 1   
   113  107  109 1   
   114  114  115 1   
   115  114  125 1   
   116  115  116 1   
   117  115  118 1   
   118  115  126 1   
   119  116  117 2   
   120  116  134 1   
   121  118  119 1   
   122  118  127 1   
   123  118  128 1   
   124  119  120 ar  
   125  119  121 ar  
   126  120  122 ar  
   127  120  129 1   
   128  121  123 ar  
   129  121  130 1   
   130  122  124 ar  
   131  122  131 1   
   132  123  124 ar  
   133  123  132 1   
   134  124  133 1   
   135  134  135 1   
   136  134  140 1   
   137  135  136 1   
   138  135  138 1   
   139  135  141 1   
   140  136  137 2   
   141  136  148 1   
   142  138  139 1   
   143  138  142 1   
   144  138  143 1   
   145  139  140 1   
   146  139  144 1   
   147  139  145 1   
   148  140  146 1   
   149  140  147 1   
   150  148  149 1   
   151  148  157 1   
   152  149  150 1   
   153  149  152 1   
   154  149  158 1   
   155  150  151 2   
   156  150  163 1   
   157  152  153 1   
   158  152  159 1   
   159  152  160 1   
   160  153  154 1   
   161  153  161 1   
   162  153  162 1   
   163  154  155 1   
   164  154  156 1   
   165  163  164 1   
   166  163  168 1   
   167  164  165 1   
   168  164  166 1   
   169  164  167 1   
   170  170  171 1   
   171  170  172 1   
   172  173  174 1   
   173  173  175 1   
   174  176  177 1   
   175  176  178 1   
   176  179  180 1   
   177  179  181 1   
@<TRIPOS>SUBSTRUCTURE
     1 MOL         1 TEMP              0 ****  ****    0 ROOT
