@<TRIPOS>MOLECULE
MOL
  179   176     1     0     0
SMALL
resp


@<TRIPOS>ATOM
      1 C1          0.6630   -4.1130    5.3600 c3        1 MOL     -0.357514
      2 C2          0.9330   -4.0610    3.8590 c         1 MOL      0.726330
      3 O1         -0.0170   -4.2280    3.1170 o         1 MOL     -0.610857
      4 H1          0.0180   -4.9630    5.5840 hc        1 MOL      0.096451
      5 H2          1.6060   -4.2210    5.8960 hc        1 MOL      0.096451
      6 H3          0.1700   -3.1920    5.6730 hc        1 MOL      0.096451
      7 N1          2.2210   -3.8930    3.5390 n         1 MOL     -0.584951
      8 C3          2.6070   -3.2100    2.3110 c3        1 MOL     -0.056965
      9 C4          3.2540   -4.2080    1.3210 c         1 MOL      0.645565
     10 O2          4.3790   -4.7040    1.5860 o         1 MOL     -0.521218
     11 C5          3.5300   -2.0980    2.7090 c3        1 MOL     -0.096167
     12 C6          3.7540   -1.1510    1.4720 c         1 MOL      0.613336
     13 O3          3.9650    0.0670    1.5330 o         1 MOL     -0.683920
     14 O4          3.5950   -1.6710    0.3660 o         1 MOL     -0.683920
     15 H4          2.7970   -3.8480    4.3710 hn        1 MOL      0.351469
     16 H5          1.8130   -2.5880    1.8940 h1        1 MOL      0.030472
     17 H6          4.4330   -2.5750    3.0930 hc        1 MOL      0.056152
     18 H7          2.9610   -1.5200    3.4340 hc        1 MOL      0.056152
     19 N2          2.6840   -4.4880    0.1660 n         1 MOL     -0.432308
     20 C7          3.1330   -5.4960   -0.7760 c3        1 MOL     -0.151048
     21 C8          4.3750   -5.0300   -1.5190 c         1 MOL      0.534502
     22 O5          5.1720   -5.8440   -1.9730 o         1 MOL     -0.572636
     23 C9          1.9650   -5.7900   -1.7540 c3        1 MOL      0.123080
     24 C10         0.5950   -6.2180   -1.1740 c3        1 MOL      0.086311
     25 C11        -0.4820   -6.6350   -2.1720 c3        1 MOL     -0.033216
     26 C12        -1.5370   -7.5720   -1.5520 c3        1 MOL      0.031946
     27 N3         -2.4970   -8.0210   -2.6390 n4        1 MOL     -0.238673
     28 H8          1.8420   -3.9710   -0.0520 hn        1 MOL      0.292211
     29 H9          3.3910   -6.4020   -0.2280 h1        1 MOL      0.139721
     30 H10         2.2350   -6.6100   -2.4140 hc        1 MOL     -0.013978
     31 H11         1.9160   -4.9590   -2.4630 hc        1 MOL     -0.013978
     32 H12         0.1180   -5.3820   -0.6550 hc        1 MOL     -0.011420
     33 H13         0.8450   -7.0250   -0.4960 hc        1 MOL     -0.011420
     34 H14         0.0660   -7.1480   -2.9570 hc        1 MOL      0.024179
     35 H15        -0.9460   -5.7010   -2.4730 hc        1 MOL      0.024179
     36 H16        -2.0070   -7.0770   -0.7030 hx        1 MOL      0.084726
     37 H17        -0.9600   -8.4350   -1.2020 hx        1 MOL      0.084726
     38 H18        -3.2940   -8.5120   -2.2780 hn        1 MOL      0.255120
     39 H19        -2.9310   -7.3150   -3.2180 hn        1 MOL      0.255120
     40 H20        -2.0570   -8.6680   -3.2790 hn        1 MOL      0.255120
     41 N4          4.7140   -3.7480   -1.4700 n         1 MOL     -0.131158
     42 C13         5.8700   -3.1840   -2.2440 c3        1 MOL     -0.043167
     43 C14         6.8660   -2.4670   -1.2610 c         1 MOL      0.370971
     44 O6          7.9750   -2.0100   -1.4750 o         1 MOL     -0.517144
     45 C15         5.4750   -2.3080   -3.4030 c3        1 MOL     -0.297106
     46 C16         4.4930   -1.2600   -2.8800 c         1 MOL      0.787020
     47 O7          3.2110   -1.4060   -2.8720 o         1 MOL     -0.754167
     48 O8          4.9680   -0.1800   -2.4710 o         1 MOL     -0.754167
     49 H21         4.0830   -3.1450   -0.9580 hn        1 MOL      0.087304
     50 H22         6.4390   -4.0140   -2.6570 h1        1 MOL      0.147638
     51 H23         4.9720   -2.9310   -4.1390 hc        1 MOL      0.106285
     52 H24         6.3460   -1.8410   -3.8710 hc        1 MOL      0.106285
     53 N5          6.4210   -2.3380    0.0230 n         1 MOL     -0.002877
     54 C17         7.2000   -1.7740    1.1290 c3        1 MOL     -0.252138
     55 C18         7.4850   -0.2280    1.0940 c         1 MOL      0.496483
     56 O9          8.0600    0.4200    2.0200 o         1 MOL     -0.568590
     57 H25         5.4660   -2.6140    0.1820 hn        1 MOL      0.026673
     58 H26         8.2040   -2.1950    1.0740 h1        1 MOL      0.125147
     59 H27         6.7160   -1.8840    2.1000 h1        1 MOL      0.125147
     60 N6          7.0870    0.4060   -0.0090 n         1 MOL     -0.124796
     61 C19         7.3430    1.7950   -0.2970 c3        1 MOL      0.028512
     62 C20         6.0230    2.5970   -0.4100 c         1 MOL      0.489082
     63 O10         4.9190    2.0020   -0.5990 o         1 MOL     -0.498172
     64 C21         8.2200    1.7680   -1.6200 c3        1 MOL     -0.134376
     65 C22         9.6880    1.3280   -1.4650 c         1 MOL      0.651134
     66 N7          9.9880    0.0310   -1.3740 n         1 MOL     -0.836313
     67 O11        10.5170    2.1980   -1.3290 o         1 MOL     -0.570670
     68 H28         6.5950   -0.0920   -0.7250 hn        1 MOL      0.184020
     69 H29         7.9690    2.2480    0.4660 h1        1 MOL      0.066141
     70 H30         8.1710    2.7800   -2.0020 hc        1 MOL      0.034255
     71 H31         7.7930    1.0870   -2.3470 hc        1 MOL      0.034255
     72 H32         9.2980   -0.7010   -1.4260 hn        1 MOL      0.379216
     73 H33        10.8800   -0.1930   -0.9610 hn        1 MOL      0.379216
     74 N8          6.1120    3.8980   -0.4260 n         1 MOL     -0.353688
     75 C23         5.0640    4.8390   -0.8080 c3        1 MOL     -0.017597
     76 C24         3.9630    4.9770    0.2650 c         1 MOL      0.558461
     77 O12         4.2640    4.9580    1.4440 o         1 MOL     -0.474894
     78 H34         6.9780    4.3050   -0.0930 hn        1 MOL      0.282455
     79 H35         4.6250    4.3810   -1.6910 h1        1 MOL      0.060313
     80 H36         5.3910    5.7900   -1.2480 h1        1 MOL      0.060313
     81 N9          2.6470    5.0470   -0.2210 n         1 MOL     -0.646979
     82 C25         1.4820    4.7670    0.6520 c3        1 MOL      0.148470
     83 C26         1.2710    3.2310    0.9490 c         1 MOL      0.831568
     84 O13         1.9800    2.4000    0.3680 o         1 MOL     -0.624142
     85 C27         0.1860    5.3360   -0.0130 c3        1 MOL     -0.366033
     86 C28         0.1480    6.8050   -0.3230 ca        1 MOL      0.090267
     87 C29         0.6980    7.7730    0.5670 ca        1 MOL     -0.056898
     88 C30        -0.4690    7.2170   -1.5230 ca        1 MOL     -0.056898
     89 C31         0.4900    9.1370    0.3510 ca        1 MOL     -0.425386
     90 C32        -0.4730    8.5790   -1.8090 ca        1 MOL     -0.425386
     91 C33        -0.1390    9.5390   -0.8750 ca        1 MOL      0.501612
     92 O14        -0.3230   10.8340   -1.1110 oh        1 MOL     -0.494258
     93 H37         2.5060    5.0380   -1.2200 hn        1 MOL      0.327916
     94 H38         1.5590    5.2500    1.6230 h1        1 MOL      0.066048
     95 H39        -0.6770    5.1210    0.6140 hc        1 MOL      0.104343
     96 H40         0.1870    4.8520   -0.9860 hc        1 MOL      0.104343
     97 H41         1.2200    7.4030    1.4350 ha        1 MOL      0.126346
     98 H42        -0.7780    6.4240   -2.1820 ha        1 MOL      0.126346
     99 H43         0.8300    9.9140    1.0240 ha        1 MOL      0.187921
    100 H44        -0.9460    8.9410   -2.7090 ha        1 MOL      0.187921
    101 H45         0.3210   11.2580   -0.5420 ho        1 MOL      0.364031
    102 N10         0.3520    2.9580    1.8220 n         1 MOL     -0.823607
    103 C34        -0.0300    1.6080    2.3510 c3        1 MOL      0.075756
    104 C35        -0.2270    0.5120    1.3340 c         1 MOL      0.688216
    105 O15         0.6870   -0.0190    0.6530 o         1 MOL     -0.593842
    106 C36         0.8630    1.1590    3.5180 c3        1 MOL      0.280013
    107 C37         0.3430   -0.1260    4.2500 c3        1 MOL     -0.006393
    108 C38         0.9900    2.2620    4.5540 c3        1 MOL     -0.436066
    109 C39        -0.9340   -0.1640    5.0510 c3        1 MOL     -0.322685
    110 H46        -0.0050    3.7490    2.3470 hn        1 MOL      0.387879
    111 H47        -0.9700    1.7590    2.8810 h1        1 MOL      0.073418
    112 H48         1.8370    0.7680    3.2230 hc        1 MOL      0.026961
    113 H49         1.1980   -0.4150    4.8540 hc        1 MOL      0.031871
    114 H50         0.3120   -0.8600    3.4420 hc        1 MOL      0.031871
    115 H51         0.0120    2.6690    4.7990 hc        1 MOL      0.104506
    116 H52         1.3830    1.9640    5.5260 hc        1 MOL      0.104506
    117 H53         1.6070    2.9930    4.0370 hc        1 MOL      0.104506
    118 H54        -1.8800    0.0090    4.5540 hc        1 MOL      0.085594
    119 H55        -1.0220   -1.0900    5.6150 hc        1 MOL      0.085594
    120 H56        -0.8690    0.5980    5.8340 hc        1 MOL      0.085594
    121 N11        -1.4930    0.0330    1.2920 n         1 MOL     -0.476190
    122 C40        -1.9790   -1.0640    0.3740 c3        1 MOL     -0.023814
    123 C41        -3.4290   -0.9160   -0.1710 c         1 MOL      0.599018
    124 O16        -3.6600   -1.2870   -1.3450 o         1 MOL     -0.533923
    125 C42        -1.6890   -2.4150    0.9650 c3        1 MOL      0.293585
    126 O17        -2.0950   -2.5030    2.3100 oh        1 MOL     -0.633491
    127 H57        -2.1690    0.5090    1.8720 hn        1 MOL      0.238765
    128 H58        -1.3720   -1.0860   -0.5370 h1        1 MOL      0.049087
    129 H59        -0.6400   -2.6670    0.8160 h1        1 MOL     -0.002495
    130 H60        -2.2040   -3.1830    0.3920 h1        1 MOL     -0.002495
    131 H61        -1.6650   -3.2490    2.7310 ho        1 MOL      0.409176
    132 N12        -4.3990   -0.4100    0.6030 n         1 MOL     -0.595326
    133 C43        -5.7970   -0.4400    0.3310 c3        1 MOL      0.139554
    134 C44        -6.0200    0.3330   -1.0320 c         1 MOL      0.624268
    135 O18        -5.2830    1.2310   -1.4100 o         1 MOL     -0.543342
    136 C45        -6.5540    0.1380    1.5480 c3        1 MOL     -0.315076
    137 H62        -4.1500   -0.0760    1.5140 hn        1 MOL      0.361704
    138 H63        -6.1460   -1.4650    0.2160 h1        1 MOL      0.096470
    139 H64        -6.3640    1.1990    1.6890 hc        1 MOL      0.092989
    140 H65        -7.6150   -0.0450    1.3630 hc        1 MOL      0.092989
    141 H66        -6.2300   -0.4450    2.4010 hc        1 MOL      0.092989
    142 N13        -7.1740    0.1160   -1.7650 n         1 MOL     -0.604174
    143 C46        -8.3290   -0.8310   -1.5020 c3        1 MOL      0.232270
    144 C47        -9.6510   -0.2390   -1.9890 c         1 MOL      0.445508
    145 O19        -9.7000    0.3740   -3.0370 o         1 MOL     -0.534951
    146 C48        -7.8930   -2.2400   -2.0130 c3        1 MOL     -0.116967
    147 H67        -7.2680    0.6260   -2.6270 hn        1 MOL      0.324420
    148 H68        -8.3500   -1.0410   -0.4300 h1        1 MOL     -0.009831
    149 H69        -7.7450   -2.3410   -3.0890 hc        1 MOL      0.030667
    150 H70        -6.9530   -2.5490   -1.5570 hc        1 MOL      0.030667
    151 H71        -8.6950   -2.9330   -1.7850 hc        1 MOL      0.030667
    152 N14       -10.8000   -0.4760   -1.3960 n         1 MOL     -0.269713
    153 C49       -11.0280   -0.9720   -0.0540 c3        1 MOL     -0.391190
    154 C50       -10.5070   -0.0070    0.9900 c         1 MOL      0.596989
    155 O20       -10.3330   -0.3450    2.1930 o         1 MOL     -0.562235
    156 C51       -12.5010   -1.5180    0.1530 c3        1 MOL      0.028022
    157 C52       -13.6040   -0.4870    0.2400 c3        1 MOL      0.009086
    158 C53       -13.6880    0.5180   -0.9000 c         1 MOL      0.664564
    159 O21       -12.9730    1.5550   -0.8780 o         1 MOL     -0.659911
    160 O22       -14.4890    0.1950   -1.7820 o         1 MOL     -0.659911
    161 H72       -11.6150   -0.1540   -1.8910 hn        1 MOL      0.287975
    162 H73       -10.4950   -1.9240   -0.0220 h1        1 MOL      0.134171
    163 H74       -12.4900   -2.1210    1.0520 hc        1 MOL      0.032327
    164 H75       -12.7390   -2.2430   -0.6220 hc        1 MOL      0.032327
    165 H76       -13.5820    0.0760    1.1730 hc        1 MOL     -0.018302
    166 H77       -14.5160   -1.0830    0.3210 hc        1 MOL     -0.018302
    167 N15       -10.2030    1.2070    0.5110 n         1 MOL     -0.244255
    168 C54        -9.5340    2.3320    1.1720 c3        1 MOL     -0.231402
    169 H78        -9.2410    3.0700    0.4260 h1        1 MOL      0.107164
    170 H79       -10.2150    2.7910    1.8880 h1        1 MOL      0.107164
    171 H80        -8.6460    1.9730    1.6930 h1        1 MOL      0.107164
    172 H81       -10.2870    1.2780   -0.4970 hn        1 MOL      0.256001
    173 Ca1         2.8220    0.4360   -0.9580 Ca        1 MOL      1.716541
    174 O23         0.5330    0.9330   -2.1940 oh        1 MOL     -0.890055
    175 H82         0.5110    0.7890   -3.1420 ho        1 MOL      0.441846
    176 H83        -0.3870    1.0830   -1.9520 ho        1 MOL      0.441846
    177 O24         2.9500    2.0580   -3.0250 oh        1 MOL     -0.890055
    178 H84         3.8220    2.3060   -3.3320 ho        1 MOL      0.441846
    179 H85         2.3550    2.5650   -3.5730 ho        1 MOL      0.441846
@<TRIPOS>BOND
     1    1    2 1   
     2    1    4 1   
     3    1    5 1   
     4    1    6 1   
     5    2    3 2   
     6    2    7 1   
     7    7    8 1   
     8    7   15 1   
     9    8    9 1   
    10    8   11 1   
    11    8   16 1   
    12    9   10 2   
    13    9   19 1   
    14   11   12 1   
    15   11   17 1   
    16   11   18 1   
    17   12   13 1   
    18   12   14 1   
    19   19   20 1   
    20   19   28 1   
    21   20   21 1   
    22   20   23 1   
    23   20   29 1   
    24   21   22 2   
    25   21   41 1   
    26   23   24 1   
    27   23   30 1   
    28   23   31 1   
    29   24   25 1   
    30   24   32 1   
    31   24   33 1   
    32   25   26 1   
    33   25   34 1   
    34   25   35 1   
    35   26   27 1   
    36   26   36 1   
    37   26   37 1   
    38   27   38 1   
    39   27   39 1   
    40   27   40 1   
    41   41   42 1   
    42   41   49 1   
    43   42   43 1   
    44   42   45 1   
    45   42   50 1   
    46   43   44 2   
    47   43   53 1   
    48   45   46 1   
    49   45   51 1   
    50   45   52 1   
    51   46   47 1   
    52   46   48 1   
    53   53   54 1   
    54   53   57 1   
    55   54   55 1   
    56   54   58 1   
    57   54   59 1   
    58   55   56 2   
    59   55   60 1   
    60   60   61 1   
    61   60   68 1   
    62   61   62 1   
    63   61   64 1   
    64   61   69 1   
    65   62   63 2   
    66   62   74 1   
    67   64   65 1   
    68   64   70 1   
    69   64   71 1   
    70   65   66 1   
    71   65   67 2   
    72   66   72 1   
    73   66   73 1   
    74   74   75 1   
    75   74   78 1   
    76   75   76 1   
    77   75   79 1   
    78   75   80 1   
    79   76   77 2   
    80   76   81 1   
    81   81   82 1   
    82   81   93 1   
    83   82   83 1   
    84   82   85 1   
    85   82   94 1   
    86   83   84 2   
    87   83  102 1   
    88   85   86 1   
    89   85   95 1   
    90   85   96 1   
    91   86   87 ar  
    92   86   88 ar  
    93   87   89 ar  
    94   87   97 1   
    95   88   90 ar  
    96   88   98 1   
    97   89   91 ar  
    98   89   99 1   
    99   90   91 ar  
   100   90  100 1   
   101   91   92 1   
   102   92  101 1   
   103  102  103 1   
   104  102  110 1   
   105  103  104 1   
   106  103  106 1   
   107  103  111 1   
   108  104  105 2   
   109  104  121 1   
   110  106  107 1   
   111  106  108 1   
   112  106  112 1   
   113  107  109 1   
   114  107  113 1   
   115  107  114 1   
   116  108  115 1   
   117  108  116 1   
   118  108  117 1   
   119  109  118 1   
   120  109  119 1   
   121  109  120 1   
   122  121  122 1   
   123  121  127 1   
   124  122  123 1   
   125  122  125 1   
   126  122  128 1   
   127  123  124 2   
   128  123  132 1   
   129  125  126 1   
   130  125  129 1   
   131  125  130 1   
   132  126  131 1   
   133  132  133 1   
   134  132  137 1   
   135  133  134 1   
   136  133  136 1   
   137  133  138 1   
   138  134  135 2   
   139  134  142 1   
   140  136  139 1   
   141  136  140 1   
   142  136  141 1   
   143  142  143 1   
   144  142  147 1   
   145  143  144 1   
   146  143  146 1   
   147  143  148 1   
   148  144  145 2   
   149  144  152 1   
   150  146  149 1   
   151  146  150 1   
   152  146  151 1   
   153  152  153 1   
   154  152  161 1   
   155  153  154 1   
   156  153  156 1   
   157  153  162 1   
   158  154  155 2   
   159  154  167 1   
   160  156  157 1   
   161  156  163 1   
   162  156  164 1   
   163  157  158 1   
   164  157  165 1   
   165  157  166 1   
   166  158  159 1   
   167  158  160 1   
   168  167  168 1   
   169  167  172 1   
   170  168  169 1   
   171  168  170 1   
   172  168  171 1   
   173  174  175 1   
   174  174  176 1   
   175  177  178 1   
   176  177  179 1   
@<TRIPOS>SUBSTRUCTURE
     1 MOL         1 TEMP              0 ****  ****    0 ROOT
