@<TRIPOS>MOLECULE
MOL
  184   179     1     0     0
SMALL
resp


@<TRIPOS>ATOM
      1 C1        -13.0080   -5.9690    1.7270 c3        1 MOL     -0.288892
      2 C2        -11.7010   -5.1890    1.7730 c         1 MOL      0.689221
      3 O1        -10.7720   -5.5630    2.4400 o         1 MOL     -0.562905
      4 H1        -13.3180   -6.2190    2.7420 hc        1 MOL      0.067158
      5 H2        -13.7780   -5.3610    1.2520 hc        1 MOL      0.067158
      6 H3        -12.8640   -6.8860    1.1550 hc        1 MOL      0.067158
      7 N1        -11.5720   -4.0310    1.1050 n         1 MOL     -0.557518
      8 C3        -12.4310   -3.3890    0.1030 c3        1 MOL      0.127216
      9 C4        -12.5020   -1.8810    0.3930 c         1 MOL      0.367032
     10 O2        -13.0400   -1.1500   -0.4890 o         1 MOL     -0.508427
     11 C5        -11.9460   -3.6500   -1.3500 c3        1 MOL     -0.333966
     12 C6        -10.5180   -3.2530   -1.5510 c         1 MOL      0.844125
     13 O3         -9.8590   -2.8330   -0.5840 o         1 MOL     -0.779399
     14 O4         -9.9920   -3.1880   -2.6510 o         1 MOL     -0.779399
     15 H4        -10.7420   -3.5010    1.3000 hn        1 MOL      0.361502
     16 H5        -13.4470   -3.7760    0.2130 h1        1 MOL      0.064863
     17 H6        -12.5260   -3.0380   -2.0330 hc        1 MOL      0.088493
     18 H7        -11.9930   -4.6890   -1.6540 hc        1 MOL      0.088493
     19 N2        -11.9350   -1.4040    1.5420 n         1 MOL     -0.247070
     20 C7        -12.0800   -0.1000    2.0980 c3        1 MOL      0.172891
     21 C8        -10.8330    0.5610    2.5920 c         1 MOL      0.326946
     22 O5        -10.8520    1.4180    3.5160 o         1 MOL     -0.528372
     23 C9        -13.1640   -0.2520    3.2280 c3        1 MOL     -0.273461
     24 H8        -11.4920   -2.0290    2.1990 hn        1 MOL      0.193915
     25 H9        -12.5110    0.4610    1.2740 h1        1 MOL      0.037111
     26 H10       -12.8140   -0.7550    4.1310 hc        1 MOL      0.070017
     27 H11       -13.6690    0.6440    3.5860 hc        1 MOL      0.070017
     28 H12       -13.9260   -0.9380    2.8490 hc        1 MOL      0.070017
     29 N3         -9.7690    0.2610    1.8440 n         1 MOL      0.125195
     30 C10        -8.5080    0.9640    1.8220 c3        1 MOL     -0.364922
     31 C11        -8.2130    1.7160    0.5040 c         1 MOL      0.475619
     32 O6         -8.5710    1.2930   -0.5940 o         1 MOL     -0.508647
     33 C12        -7.3660    0.0130    2.0880 c3        1 MOL     -0.100397
     34 C13        -7.4360   -1.4860    1.6840 c         1 MOL      0.552432
     35 O7         -7.6360   -1.7330    0.4690 o         1 MOL     -0.619740
     36 O8         -7.3350   -2.3270    2.5790 o         1 MOL     -0.619740
     37 H13        -9.8870   -0.4180    1.1080 hn        1 MOL      0.099450
     38 H14        -8.4730    1.7070    2.6080 h1        1 MOL      0.139158
     39 H15        -7.1390    0.0840    3.1510 hc        1 MOL      0.065073
     40 H16        -6.4470    0.4010    1.6490 hc        1 MOL      0.065073
     41 N4         -7.3480    2.7760    0.6030 n         1 MOL     -0.395059
     42 C14        -6.5620    3.3960   -0.4720 c3        1 MOL     -0.059898
     43 C15        -5.1570    2.7540   -0.5800 c         1 MOL      0.555549
     44 O9         -4.8660    1.5930   -0.2390 o         1 MOL     -0.518463
     45 H17        -6.9730    2.8800    1.5420 hn        1 MOL      0.315922
     46 H18        -6.4420    4.4070   -0.0850 h1        1 MOL      0.055298
     47 H19        -7.0960    3.3010   -1.4270 h1        1 MOL      0.055298
     48 N5         -4.2200    3.5940   -0.9900 n         1 MOL     -0.411563
     49 C16        -2.8710    3.1150   -1.4580 c3        1 MOL     -0.072922
     50 C17        -1.7610    4.1310   -1.0320 c         1 MOL      0.745627
     51 O10        -2.1090    5.3360   -0.8970 o         1 MOL     -0.566922
     52 C18        -2.9100    3.0350   -3.0230 c3        1 MOL     -0.543969
     53 C19        -3.9160    1.9820   -3.5370 c         1 MOL      0.821514
     54 N6         -4.8370    2.3420   -4.3650 n         1 MOL     -0.781721
     55 O11        -3.7640    0.7860   -3.3270 o         1 MOL     -0.595467
     56 H20        -4.2970    4.5990   -0.8780 hn        1 MOL      0.263421
     57 H21        -2.7000    2.1100   -1.0540 h1        1 MOL      0.135314
     58 H22        -1.9410    2.6720   -3.3740 hc        1 MOL      0.165393
     59 H23        -3.2100    3.9420   -3.5380 hc        1 MOL      0.165393
     60 H24        -4.9880    3.3190   -4.5630 hn        1 MOL      0.359609
     61 H25        -5.5500    1.6550   -4.5880 hn        1 MOL      0.359609
     62 N7         -0.5780    3.7320   -0.7920 n         1 MOL     -0.555692
     63 C20         0.5950    4.5490   -0.5150 c3        1 MOL      0.154829
     64 C21         0.6770    5.4980    0.7500 c         1 MOL      0.481699
     65 O12        -0.3280    5.5080    1.4880 o         1 MOL     -0.547915
     66 H26        -0.3860    2.7330   -0.7920 hn        1 MOL      0.344035
     67 H27         0.9270    5.1250   -1.3760 h1        1 MOL      0.048270
     68 H28         1.3920    3.8780   -0.1870 h1        1 MOL      0.048270
     69 N8          1.7290    6.2740    0.9210 n         1 MOL     -0.324163
     70 C22         2.9710    6.3470    0.1100 c3        1 MOL     -0.289085
     71 C23         3.9110    5.2070    0.2110 c         1 MOL      0.519673
     72 O13         4.6070    5.1220   -0.7680 o         1 MOL     -0.455114
     73 C24         3.6810    7.6000    0.5690 c3        1 MOL      0.388965
     74 C25         2.8320    8.8940    0.3970 c3        1 MOL     -0.462235
     75 O14         3.9990    7.3380    1.9500 oh        1 MOL     -0.586886
     76 H29         1.6280    6.8630    1.7400 hn        1 MOL      0.267975
     77 H30         2.7620    6.4030   -0.9570 h1        1 MOL      0.156380
     78 H31         4.6420    7.7390    0.0650 h1        1 MOL      0.038078
     79 H32         4.7390    7.9040    2.1880 ho        1 MOL      0.381211
     80 H33         3.4590    9.7870    0.4020 hc        1 MOL      0.116873
     81 H34         2.4340    8.7550   -0.6080 hc        1 MOL      0.116873
     82 H35         1.9990    9.0160    1.0760 hc        1 MOL      0.116873
     83 N9          3.9230    4.4170    1.2990 n         1 MOL     -0.448549
     84 C26         4.6710    3.1660    1.4960 c3        1 MOL      0.037030
     85 C27         4.3240    2.1280    0.4410 c         1 MOL      0.527729
     86 O15         3.1660    1.9750    0.0780 o         1 MOL     -0.601497
     87 C28         4.3880    2.6050    2.9080 c3        1 MOL      0.056958
     88 C29         4.9940    3.5140    3.9840 c3        1 MOL     -0.202902
     89 C30         4.7720    1.1100    3.0790 c3        1 MOL     -0.174632
     90 C31         6.4670    3.4160    4.1840 c3        1 MOL     -0.078382
     91 H36         3.4270    4.7690    2.1120 hn        1 MOL      0.261471
     92 H37         5.7100    3.4750    1.3600 h1        1 MOL      0.125368
     93 H38         3.3000    2.6220    2.9980 hc        1 MOL      0.006275
     94 H39         4.5210    3.0950    4.8710 hc        1 MOL      0.067120
     95 H40         4.6940    4.5490    3.8810 hc        1 MOL      0.067120
     96 H41         4.0290    0.3730    2.7830 hc        1 MOL      0.067569
     97 H42         5.7280    0.9870    2.5630 hc        1 MOL      0.067569
     98 H43         4.9230    1.0250    4.1510 hc        1 MOL      0.067569
     99 H44         6.7830    2.4100    4.4510 hc        1 MOL      0.025444
    100 H45         6.9580    3.6150    3.2300 hc        1 MOL      0.025444
    101 H46         6.7750    4.0790    4.9920 hc        1 MOL      0.025444
    102 N10         5.2760    1.3690   -0.0910 n         1 MOL     -0.232063
    103 C32         6.6490    1.5330   -0.1400 c3        1 MOL      0.014024
    104 C33         7.2690    0.1200   -0.4960 c         1 MOL      0.501307
    105 O16         6.5870   -0.8640   -0.7270 o         1 MOL     -0.510520
    106 C34         7.1120    2.6880   -1.0990 c3        1 MOL     -0.048306
    107 C35         6.5310    2.8460   -2.5300 c         1 MOL      0.668283
    108 O17         6.5390    4.0050   -2.9850 o         1 MOL     -0.711068
    109 O18         6.1700    1.8230   -3.1280 o         1 MOL     -0.711068
    110 H47         4.8880    0.5510   -0.5350 hn        1 MOL      0.226540
    111 H48         7.0280    1.7790    0.8560 h1        1 MOL      0.046307
    112 H49         8.1960    2.6350   -1.1840 hc        1 MOL     -0.040186
    113 H50         7.0070    3.6650   -0.6370 hc        1 MOL     -0.040186
    114 N11         8.5690    0.1230   -0.5990 n         1 MOL     -0.616877
    115 C36         9.4680   -0.9680   -1.0130 c3        1 MOL      0.762896
    116 C37        10.3700   -1.4760    0.1840 c         1 MOL      0.114000
    117 O19        10.6190   -0.6990    1.0910 o         1 MOL     -0.478435
    118 C38        10.3250   -0.4820   -2.2610 c3        1 MOL     -0.481036
    119 C39        11.2040   -1.5800   -2.8340 ca        1 MOL      0.188934
    120 C40        12.5540   -1.7820   -2.4500 ca        1 MOL     -0.201270
    121 C41        10.5890   -2.5020   -3.6740 ca        1 MOL     -0.201270
    122 C42        13.2680   -2.9140   -2.8200 ca        1 MOL     -0.117041
    123 C43        11.3550   -3.5780   -4.2240 ca        1 MOL     -0.117041
    124 C44        12.6590   -3.8290   -3.7570 ca        1 MOL     -0.144350
    125 H51         8.9730    0.9960   -0.3100 hn        1 MOL      0.291738
    126 H52         8.8480   -1.8180   -1.3140 h1        1 MOL     -0.070162
    127 H53        10.8440    0.3900   -1.8900 hc        1 MOL      0.139549
    128 H54         9.5660   -0.2220   -3.0020 hc        1 MOL      0.139549
    129 H55        13.0540   -1.1210   -1.7550 ha        1 MOL      0.139144
    130 H56         9.5870   -2.3100   -4.0450 ha        1 MOL      0.139144
    131 H57        14.2370   -3.0770   -2.3650 ha        1 MOL      0.113573
    132 H58        10.8810   -4.3100   -4.8580 ha        1 MOL      0.113573
    133 H59        13.1740   -4.7390   -4.0500 ha        1 MOL      0.107813
    134 N12        10.7110   -2.7660    0.2690 n         1 MOL     -0.021446
    135 C45        10.1210   -3.9290   -0.4330 c3        1 MOL     -0.116568
    136 C46         8.6460   -4.2820   -0.0110 c         1 MOL      0.488925
    137 O20         7.8560   -4.7370   -0.8580 o         1 MOL     -0.558365
    138 C47        11.0710   -5.1100   -0.1920 c3        1 MOL      0.170046
    139 C48        12.4040   -4.6190    0.4150 c3        1 MOL     -0.254233
    140 C49        11.9390   -3.2420    0.8970 c3        1 MOL      0.259448
    141 H60        10.1940   -3.7610   -1.5170 h1        1 MOL      0.089632
    142 H61        10.5580   -5.8050    0.4640 hc        1 MOL     -0.021744
    143 H62        11.2870   -5.6230   -1.1260 hc        1 MOL     -0.021744
    144 H63        12.6950   -5.2780    1.2310 hc        1 MOL      0.054299
    145 H64        13.0190   -4.5770   -0.4850 hc        1 MOL      0.054299
    146 H65        11.8990   -3.2260    1.9900 h1        1 MOL     -0.024142
    147 H66        12.8440   -2.6420    0.7640 h1        1 MOL     -0.024142
    148 N13         8.2800   -4.0080    1.2450 n         1 MOL     -0.496006
    149 C50         6.8500   -4.1150    1.6020 c3        1 MOL      0.516914
    150 C51         6.2460   -5.5100    1.6880 c         1 MOL      0.328626
    151 O21         6.6500   -6.0990    2.6950 o         1 MOL     -0.579441
    152 C52         6.5920   -3.4390    2.9950 c3        1 MOL     -0.278480
    153 C53         7.0810   -2.0010    2.9960 c3        1 MOL      0.256010
    154 C54         6.9750   -1.2980    4.3530 c         1 MOL      0.671146
    155 O22         7.6630   -0.2710    4.5320 o         1 MOL     -0.729677
    156 O23         6.1880   -1.7560    5.2480 o         1 MOL     -0.729677
    157 H67         8.8710   -3.4960    1.8800 hn        1 MOL      0.290002
    158 H68         6.2640   -3.6730    0.8030 h1        1 MOL     -0.028020
    159 H69         7.1760   -3.9030    3.7830 hc        1 MOL      0.047769
    160 H70         5.5150   -3.4010    3.1790 hc        1 MOL      0.047769
    161 H71         6.6650   -1.4120    2.1850 hc        1 MOL     -0.127301
    162 H72         8.1320   -2.1100    2.7510 hc        1 MOL     -0.127301
    163 N14         5.4080   -6.0910    0.8190 n         1 MOL     -0.263703
    164 C55         4.7940   -5.5290   -0.3730 c3        1 MOL     -0.216341
    165 H73         5.5720   -5.2360   -1.0780 h1        1 MOL      0.096984
    166 H74         4.1480   -6.2750   -0.8360 h1        1 MOL      0.096984
    167 H75         4.2040   -4.6540   -0.1000 h1        1 MOL      0.096984
    168 H76         5.2230   -7.0650    1.0220 hn        1 MOL      0.250140
    169 Ca1        -8.1640   -1.2840   -1.9000 Ca        1 MOL      1.711884
    170 O24        -7.6960    1.2130   -3.1880 oh        1 MOL     -0.824384
    171 H77        -8.0350    1.6560   -2.4170 ho        1 MOL      0.407139
    172 H78        -7.6530    1.8910   -3.8700 ho        1 MOL      0.407139
    173 O25       -10.4810    0.1650   -2.1560 oh        1 MOL     -0.824384
    174 H79       -10.6010    0.0580   -3.0970 ho        1 MOL      0.407139
    175 H80       -11.1980    0.7300   -1.8780 ho        1 MOL      0.407139
    176 O26        -8.0640   -1.9180   -4.6170 oh        1 MOL     -0.824384
    177 H81        -7.6220   -2.7710   -4.5980 ho        1 MOL      0.407139
    178 H82        -8.4450   -1.8670   -5.4860 ho        1 MOL      0.407139
    179 O27        -5.5540   -0.6780   -2.0370 oh        1 MOL     -0.824384
    180 H83        -4.8620   -0.2890   -2.5820 ho        1 MOL      0.407139
    181 H84        -5.2150   -0.6440   -1.1490 ho        1 MOL      0.407139
    182 O28        -6.6110   -3.5890   -2.4180 oh        1 MOL     -0.824384
    183 H85        -6.4980   -4.2910   -3.0550 ho        1 MOL      0.407139
    184 H86        -5.7760   -3.5320   -1.9600 ho        1 MOL      0.407139
@<TRIPOS>BOND
     1    1    2 1   
     2    1    4 1   
     3    1    5 1   
     4    1    6 1   
     5    2    3 2   
     6    2    7 1   
     7    7    8 1   
     8    7   15 1   
     9    8    9 1   
    10    8   11 1   
    11    8   16 1   
    12    9   10 2   
    13    9   19 1   
    14   11   12 1   
    15   11   17 1   
    16   11   18 1   
    17   12   13 1   
    18   12   14 1   
    19   19   20 1   
    20   19   24 1   
    21   20   21 1   
    22   20   23 1   
    23   20   25 1   
    24   21   22 2   
    25   21   29 1   
    26   23   26 1   
    27   23   27 1   
    28   23   28 1   
    29   29   30 1   
    30   29   37 1   
    31   30   31 1   
    32   30   33 1   
    33   30   38 1   
    34   31   32 2   
    35   31   41 1   
    36   33   34 1   
    37   33   39 1   
    38   33   40 1   
    39   34   35 1   
    40   34   36 1   
    41   41   42 1   
    42   41   45 1   
    43   42   43 1   
    44   42   46 1   
    45   42   47 1   
    46   43   44 2   
    47   43   48 1   
    48   48   49 1   
    49   48   56 1   
    50   49   50 1   
    51   49   52 1   
    52   49   57 1   
    53   50   51 2   
    54   50   62 1   
    55   52   53 1   
    56   52   58 1   
    57   52   59 1   
    58   53   54 1   
    59   53   55 2   
    60   54   60 1   
    61   54   61 1   
    62   62   63 1   
    63   62   66 1   
    64   63   64 1   
    65   63   67 1   
    66   63   68 1   
    67   64   65 2   
    68   64   69 1   
    69   69   70 1   
    70   69   76 1   
    71   70   71 1   
    72   70   73 1   
    73   70   77 1   
    74   71   72 2   
    75   71   83 1   
    76   73   74 1   
    77   73   75 1   
    78   73   78 1   
    79   74   80 1   
    80   74   81 1   
    81   74   82 1   
    82   75   79 1   
    83   83   84 1   
    84   83   91 1   
    85   84   85 1   
    86   84   87 1   
    87   84   92 1   
    88   85   86 2   
    89   85  102 1   
    90   87   88 1   
    91   87   89 1   
    92   87   93 1   
    93   88   90 1   
    94   88   94 1   
    95   88   95 1   
    96   89   96 1   
    97   89   97 1   
    98   89   98 1   
    99   90   99 1   
   100   90  100 1   
   101   90  101 1   
   102  102  103 1   
   103  102  110 1   
   104  103  104 1   
   105  103  106 1   
   106  103  111 1   
   107  104  105 2   
   108  104  114 1   
   109  106  107 1   
   110  106  112 1   
   111  106  113 1   
   112  107  108 1   
   113  107  109 1   
   114  114  115 1   
   115  114  125 1   
   116  115  116 1   
   117  115  118 1   
   118  115  126 1   
   119  116  117 2   
   120  116  134 1   
   121  118  119 1   
   122  118  127 1   
   123  118  128 1   
   124  119  120 ar  
   125  119  121 ar  
   126  120  122 ar  
   127  120  129 1   
   128  121  123 ar  
   129  121  130 1   
   130  122  124 ar  
   131  122  131 1   
   132  123  124 ar  
   133  123  132 1   
   134  124  133 1   
   135  134  135 1   
   136  134  140 1   
   137  135  136 1   
   138  135  138 1   
   139  135  141 1   
   140  136  137 2   
   141  136  148 1   
   142  138  139 1   
   143  138  142 1   
   144  138  143 1   
   145  139  140 1   
   146  139  144 1   
   147  139  145 1   
   148  140  146 1   
   149  140  147 1   
   150  148  149 1   
   151  148  157 1   
   152  149  150 1   
   153  149  152 1   
   154  149  158 1   
   155  150  151 2   
   156  150  163 1   
   157  152  153 1   
   158  152  159 1   
   159  152  160 1   
   160  153  154 1   
   161  153  161 1   
   162  153  162 1   
   163  154  155 1   
   164  154  156 1   
   165  163  164 1   
   166  163  168 1   
   167  164  165 1   
   168  164  166 1   
   169  164  167 1   
   170  170  171 1   
   171  170  172 1   
   172  173  174 1   
   173  173  175 1   
   174  176  177 1   
   175  176  178 1   
   176  179  180 1   
   177  179  181 1   
   178  182  183 1   
   179  182  184 1   
@<TRIPOS>SUBSTRUCTURE
     1 MOL         1 TEMP              0 ****  ****    0 ROOT
