@<TRIPOS>MOLECULE
MOL
  175   173     1     0     0
SMALL
resp


@<TRIPOS>ATOM
      1 C1         -7.0630    7.6240    2.1130 c3        1 MOL     -0.392804
      2 C2         -7.6120    6.8250    0.9240 c         1 MOL      0.755669
      3 O1         -7.4670    7.2850   -0.2070 o         1 MOL     -0.592334
      4 H1         -6.4500    8.4460    1.7450 hc        1 MOL      0.092266
      5 H2         -7.8920    8.0220    2.6980 hc        1 MOL      0.092266
      6 H3         -6.4550    6.9710    2.7390 hc        1 MOL      0.092266
      7 N1         -8.1840    5.6500    1.2240 n         1 MOL     -0.750834
      8 C3         -8.9160    4.8510    0.2380 c3        1 MOL      0.583582
      9 C4         -7.9800    3.8310   -0.4540 c         1 MOL      0.435464
     10 O2         -8.3230    2.6810   -0.6850 o         1 MOL     -0.501929
     11 C5        -10.1460    4.0930    0.7920 c3        1 MOL     -0.495550
     12 C6        -11.0040    3.4630   -0.2740 c         1 MOL      0.823907
     13 O3        -12.0070    2.7820    0.0850 o         1 MOL     -0.746904
     14 O4        -10.8940    3.7070   -1.4790 o         1 MOL     -0.746904
     15 H4         -8.3170    5.3180    2.1710 hn        1 MOL      0.342470
     16 H5         -9.3540    5.5440   -0.4840 h1        1 MOL     -0.038196
     17 H6        -10.8120    4.8050    1.2800 hc        1 MOL      0.067445
     18 H7         -9.8250    3.3770    1.5430 hc        1 MOL      0.067445
     19 N2         -6.7670    4.3080   -0.7580 n         1 MOL     -0.577318
     20 C7         -5.6330    3.5480   -1.3150 c3        1 MOL      0.311030
     21 C8         -4.8980    2.8390   -0.1480 c         1 MOL      0.632317
     22 O5         -4.3960    3.4430    0.7880 o         1 MOL     -0.585640
     23 C9         -4.8110    4.5900   -2.0930 c3        1 MOL     -0.396825
     24 H8         -6.5580    5.2630   -0.5060 hn        1 MOL      0.278127
     25 H9         -5.9600    2.8980   -2.1360 h1        1 MOL      0.080598
     26 H10        -3.8320    4.1440   -2.2950 hc        1 MOL      0.097381
     27 H11        -5.2650    5.0940   -2.9480 hc        1 MOL      0.097381
     28 H12        -4.5620    5.4110   -1.4290 hc        1 MOL      0.097381
     29 N3         -4.7450    1.5050   -0.1170 n         1 MOL     -0.553118
     30 C10        -5.2950    0.5810   -1.0920 c3        1 MOL      0.067454
     31 C11        -5.5260   -0.8360   -0.4720 c         1 MOL      0.529873
     32 O6         -4.7700   -1.3040    0.4690 o         1 MOL     -0.555654
     33 C12        -4.1730    0.3060   -2.1060 c3        1 MOL     -0.417036
     34 C13        -2.8050   -0.1520   -1.5760 c         1 MOL      0.843953
     35 O7         -2.2450    0.3290   -0.5750 o         1 MOL     -0.767701
     36 O8         -2.2840   -1.1490   -2.0570 o         1 MOL     -0.767701
     37 H13        -4.0140    1.1320    0.4660 hn        1 MOL      0.355891
     38 H14        -6.1850    0.9740   -1.5930 h1        1 MOL      0.063528
     39 H15        -3.9340    1.2090   -2.6720 hc        1 MOL      0.082231
     40 H16        -4.6830   -0.3780   -2.7900 hc        1 MOL      0.082231
     41 N4         -6.4910   -1.5620   -1.0840 n         1 MOL     -0.512128
     42 C14        -6.7250   -3.0590   -0.7530 c3        1 MOL      0.236377
     43 C15        -6.5230   -3.7720   -2.0690 c         1 MOL      0.434516
     44 O9         -7.4360   -3.6610   -2.8910 o         1 MOL     -0.542257
     45 H17        -7.0880   -1.0990   -1.7670 hn        1 MOL      0.353486
     46 H18        -7.7480   -3.2810   -0.4570 h1        1 MOL     -0.000531
     47 H19        -6.1030   -3.5060    0.0320 h1        1 MOL     -0.000531
     48 N5         -5.3310   -4.3180   -2.3820 n         1 MOL     -0.408604
     49 C16        -4.1110   -4.2020   -1.6360 c3        1 MOL      0.056020
     50 C17        -4.0740   -5.0220   -0.3420 c         1 MOL      0.494655
     51 O10        -4.1740   -6.2490   -0.3870 o         1 MOL     -0.555775
     52 C18        -2.9000   -4.4280   -2.6520 c3        1 MOL     -0.252888
     53 C19        -1.6010   -4.0540   -1.9930 c         1 MOL      0.644821
     54 N6         -0.4970   -4.2150   -2.7100 n         1 MOL     -0.825654
     55 O11        -1.5320   -3.7240   -0.8220 o         1 MOL     -0.480554
     56 H20        -5.3150   -4.8670   -3.2220 hn        1 MOL      0.285849
     57 H21        -3.9820   -3.1640   -1.3410 h1        1 MOL      0.124461
     58 H22        -3.1810   -3.7360   -3.4420 hc        1 MOL      0.087714
     59 H23        -2.7180   -5.4620   -2.9590 hc        1 MOL      0.087714
     60 H24        -0.5650   -4.6570   -3.6140 hn        1 MOL      0.349772
     61 H25         0.4090   -3.9160   -2.3790 hn        1 MOL      0.349772
     62 N7         -3.9130   -4.3630    0.8450 n         1 MOL     -0.171857
     63 C20        -3.6870   -4.9980    2.1100 c3        1 MOL     -0.236369
     64 C21        -2.2410   -5.3040    2.6370 c         1 MOL      0.485355
     65 O12        -2.0970   -5.9050    3.7330 o         1 MOL     -0.585347
     66 H26        -3.7150   -3.3700    0.8090 hn        1 MOL      0.231341
     67 H27        -4.2380   -5.9320    2.0810 h1        1 MOL      0.096539
     68 H28        -4.1800   -4.3660    2.8520 h1        1 MOL      0.096539
     69 N8         -1.2220   -5.0170    1.8620 n         1 MOL     -0.010606
     70 C22         0.2530   -5.2370    2.1150 c3        1 MOL     -0.351801
     71 C23         1.0640   -3.9360    2.0150 c         1 MOL      0.550339
     72 O13         0.5050   -3.0300    1.3930 o         1 MOL     -0.496928
     73 C24         0.7960   -6.3340    1.0950 c3        1 MOL      0.485415
     74 C25         0.1750   -7.7410    1.5030 c3        1 MOL     -0.569440
     75 O14         0.4700   -5.9790   -0.2070 oh        1 MOL     -0.666779
     76 H29        -1.3510   -4.4590    1.0330 hn        1 MOL      0.093286
     77 H30         0.3610   -5.5870    3.1460 h1        1 MOL      0.105104
     78 H31         1.8820   -6.3500    1.0980 h1        1 MOL     -0.034867
     79 H32         1.0660   -5.2680   -0.4560 ho        1 MOL      0.565828
     80 H33         0.7740   -8.5880    1.1830 hc        1 MOL      0.150411
     81 H34        -0.0060   -7.7180    2.5770 hc        1 MOL      0.150411
     82 H35        -0.7650   -7.8260    0.9570 hc        1 MOL      0.150411
     83 N9          2.2770   -3.8440    2.6350 n         1 MOL     -0.376930
     84 C26         3.1970   -2.7750    2.3720 c3        1 MOL      0.097717
     85 C27         4.0920   -3.1030    1.2000 c         1 MOL      0.150114
     86 O15         4.7100   -4.2140    1.1580 o         1 MOL     -0.505426
     87 C28         3.9420   -2.3200    3.6440 c3        1 MOL      0.318054
     88 C29         4.7140   -1.0290    3.3230 c3        1 MOL      0.278342
     89 C30         2.9720   -2.2560    4.8310 c3        1 MOL     -0.427048
     90 C31         5.6710   -0.5830    4.4080 c3        1 MOL     -0.329688
     91 H36         2.6940   -4.6470    3.0960 hn        1 MOL      0.274733
     92 H37         2.6220   -1.9370    1.9850 h1        1 MOL     -0.035067
     93 H38         4.6460   -3.1140    3.9030 hc        1 MOL     -0.063114
     94 H39         3.9580   -0.2490    3.1790 hc        1 MOL     -0.063156
     95 H40         5.2780   -1.0860    2.3950 hc        1 MOL     -0.063156
     96 H41         2.7130   -3.2690    5.1350 hc        1 MOL      0.095632
     97 H42         3.4550   -1.6750    5.6120 hc        1 MOL      0.095632
     98 H43         2.0470   -1.7580    4.5150 hc        1 MOL      0.095632
     99 H44         5.0790   -0.4140    5.3060 hc        1 MOL      0.058663
    100 H45         6.4710   -1.3220    4.5120 hc        1 MOL      0.058663
    101 H46         6.0980    0.3430    4.0200 hc        1 MOL      0.058663
    102 N10         4.1710   -2.2970    0.1350 n         1 MOL     -0.175267
    103 C32         4.7330   -2.6310   -1.1860 c3        1 MOL      0.039975
    104 C33         5.6050   -1.4330   -1.7080 c         1 MOL      0.503872
    105 O16         6.1950   -1.4530   -2.8150 o         1 MOL     -0.564305
    106 C34         3.6640   -3.0370   -2.2420 c3        1 MOL     -0.158309
    107 C35         2.5290   -3.7930   -1.6370 c         1 MOL      0.814350
    108 O17         2.5490   -5.0200   -1.6540 o         1 MOL     -0.705442
    109 O18         1.4790   -3.1560   -1.2520 o         1 MOL     -0.705442
    110 H47         3.6870   -1.4200    0.2450 hn        1 MOL      0.134987
    111 H48         5.3520   -3.5290   -1.1910 h1        1 MOL      0.115770
    112 H49         4.1710   -3.7090   -2.9310 hc        1 MOL      0.023724
    113 H50         3.2560   -2.2300   -2.8460 hc        1 MOL      0.023724
    114 N11         5.8120   -0.3920   -0.9000 n         1 MOL     -0.489152
    115 C36         6.6460    0.8440   -1.2780 c3        1 MOL      0.245679
    116 C37         6.3840    2.1310   -0.3580 c         1 MOL      0.418236
    117 O19         6.3140    1.9000    0.8550 o         1 MOL     -0.508604
    118 C38         8.1240    0.4770   -1.1220 c3        1 MOL     -0.269406
    119 C39         9.0260    1.4550   -1.8180 ca        1 MOL      0.092436
    120 C40         9.7160    2.4250   -1.0940 ca        1 MOL     -0.149790
    121 C41         9.2090    1.3060   -3.1780 ca        1 MOL     -0.149790
    122 C42        10.6580    3.1830   -1.7900 ca        1 MOL     -0.110211
    123 C43        10.0160    2.2450   -3.8290 ca        1 MOL     -0.110211
    124 C44        10.7670    3.1800   -3.2000 ca        1 MOL     -0.126633
    125 H51         5.3140   -0.2890   -0.0230 hn        1 MOL      0.274514
    126 H52         6.4080    1.0470   -2.3200 h1        1 MOL      0.051986
    127 H53         8.2640   -0.5300   -1.5030 hc        1 MOL      0.118532
    128 H54         8.4060    0.4400   -0.0780 hc        1 MOL      0.118532
    129 H55         9.5540    2.5640   -0.0430 ha        1 MOL      0.134065
    130 H56         8.7010    0.5470   -3.7530 ha        1 MOL      0.134065
    131 H57        11.2430    3.8640   -1.1860 ha        1 MOL      0.091672
    132 H58        10.1560    2.1570   -4.9000 ha        1 MOL      0.091672
    133 H59        11.4000    3.8740   -3.7310 ha        1 MOL      0.113767
    134 N12         6.3100    3.3370   -0.9610 n         1 MOL     -0.315819
    135 C45         6.2860    4.6330   -0.2270 c3        1 MOL      0.103480
    136 C46         5.0330    4.8880    0.6040 c         1 MOL      0.365643
    137 O20         5.0130    5.9810    1.2720 o         1 MOL     -0.557865
    138 C47         6.4780    5.6640   -1.2960 c3        1 MOL     -0.179569
    139 C48         7.1320    4.9790   -2.4830 c3        1 MOL      0.121274
    140 C49         6.5250    3.5720   -2.3920 c3        1 MOL     -0.093607
    141 H60         7.1210    4.7110    0.4620 h1        1 MOL      0.079918
    142 H61         5.5620    6.1840   -1.5790 hc        1 MOL      0.076455
    143 H62         7.1330    6.4420   -0.8970 hc        1 MOL      0.076455
    144 H63         6.8190    5.3810   -3.4410 hc        1 MOL      0.004094
    145 H64         8.2220    4.9720   -2.4580 hc        1 MOL      0.004094
    146 H65         5.5670    3.4410   -2.9030 h1        1 MOL      0.068829
    147 H66         7.1690    2.7840   -2.7790 h1        1 MOL      0.068829
    148 N13         3.9590    4.1200    0.5680 n         1 MOL     -0.196349
    149 C50         2.6700    4.3220    1.2610 c3        1 MOL     -0.291355
    150 C51         2.7970    4.6520    2.7930 c         1 MOL      0.616515
    151 O21         1.8640    5.2420    3.2890 o         1 MOL     -0.532138
    152 C52         1.8170    3.0530    0.9630 c3        1 MOL      0.076706
    153 C53         2.3610    1.7580    1.5200 c3        1 MOL     -0.028091
    154 C54         1.5750    0.6600    0.9070 c         1 MOL      0.698160
    155 O22         2.0550   -0.3100    0.2010 o         1 MOL     -0.695460
    156 O23         0.3570    0.6380    1.1470 o         1 MOL     -0.695460
    157 H67         4.0790    3.3070   -0.0120 hn        1 MOL      0.244002
    158 H68         2.2400    5.1620    0.7150 h1        1 MOL      0.164245
    159 H69         1.8760    2.9240   -0.1160 hc        1 MOL      0.019803
    160 H70         0.7840    3.2020    1.2720 hc        1 MOL      0.019803
    161 H71         2.3500    1.8700    2.6010 hc        1 MOL     -0.013228
    162 H72         3.3800    1.7910    1.1310 hc        1 MOL     -0.013228
    163 N14         3.9240    4.3340    3.4950 n         1 MOL     -0.227857
    164 C55         4.0780    4.5370    4.9100 c3        1 MOL     -0.089511
    165 H73         4.7930    5.3410    5.0860 h1        1 MOL      0.060027
    166 H74         3.1150    4.8060    5.3460 h1        1 MOL      0.060027
    167 H75         4.4420    3.6190    5.3730 h1        1 MOL      0.060027
    168 H76         4.6990    3.9980    2.9260 hn        1 MOL      0.211229
    169 Ca1        -0.2410   -1.3350   -0.4110 Ca        1 MOL      1.704613
    170 O24         0.4030   -0.1180   -2.7100 oh        1 MOL     -0.874219
    171 H77         0.0240    0.7150   -2.9870 ho        1 MOL      0.421890
    172 H78         0.6060   -0.5690   -3.5330 ho        1 MOL      0.421890
    173 O25        -2.2070   -1.6090    1.5190 oh        1 MOL     -0.874219
    174 H79        -2.2180   -1.2810    2.4220 ho        1 MOL      0.421890
    175 H80        -3.0360   -1.3070    1.1590 ho        1 MOL      0.421890
@<TRIPOS>BOND
     1    1    2 1   
     2    1    4 1   
     3    1    5 1   
     4    1    6 1   
     5    2    3 2   
     6    2    7 1   
     7    7    8 1   
     8    7   15 1   
     9    8    9 1   
    10    8   11 1   
    11    8   16 1   
    12    9   10 2   
    13    9   19 1   
    14   11   12 1   
    15   11   17 1   
    16   11   18 1   
    17   12   13 1   
    18   12   14 1   
    19   19   20 1   
    20   19   24 1   
    21   20   21 1   
    22   20   23 1   
    23   20   25 1   
    24   21   22 2   
    25   21   29 1   
    26   23   26 1   
    27   23   27 1   
    28   23   28 1   
    29   29   30 1   
    30   29   37 1   
    31   30   31 1   
    32   30   33 1   
    33   30   38 1   
    34   31   32 2   
    35   31   41 1   
    36   33   34 1   
    37   33   39 1   
    38   33   40 1   
    39   34   35 1   
    40   34   36 1   
    41   41   42 1   
    42   41   45 1   
    43   42   43 1   
    44   42   46 1   
    45   42   47 1   
    46   43   44 2   
    47   43   48 1   
    48   48   49 1   
    49   48   56 1   
    50   49   50 1   
    51   49   52 1   
    52   49   57 1   
    53   50   51 2   
    54   50   62 1   
    55   52   53 1   
    56   52   58 1   
    57   52   59 1   
    58   53   54 1   
    59   53   55 2   
    60   54   60 1   
    61   54   61 1   
    62   62   63 1   
    63   62   66 1   
    64   63   64 1   
    65   63   67 1   
    66   63   68 1   
    67   64   65 2   
    68   64   69 1   
    69   69   70 1   
    70   69   76 1   
    71   70   71 1   
    72   70   73 1   
    73   70   77 1   
    74   71   72 2   
    75   71   83 1   
    76   73   74 1   
    77   73   75 1   
    78   73   78 1   
    79   74   80 1   
    80   74   81 1   
    81   74   82 1   
    82   75   79 1   
    83   83   84 1   
    84   83   91 1   
    85   84   85 1   
    86   84   87 1   
    87   84   92 1   
    88   85   86 2   
    89   85  102 1   
    90   87   88 1   
    91   87   89 1   
    92   87   93 1   
    93   88   90 1   
    94   88   94 1   
    95   88   95 1   
    96   89   96 1   
    97   89   97 1   
    98   89   98 1   
    99   90   99 1   
   100   90  100 1   
   101   90  101 1   
   102  102  103 1   
   103  102  110 1   
   104  103  104 1   
   105  103  106 1   
   106  103  111 1   
   107  104  105 2   
   108  104  114 1   
   109  106  107 1   
   110  106  112 1   
   111  106  113 1   
   112  107  108 1   
   113  107  109 1   
   114  114  115 1   
   115  114  125 1   
   116  115  116 1   
   117  115  118 1   
   118  115  126 1   
   119  116  117 2   
   120  116  134 1   
   121  118  119 1   
   122  118  127 1   
   123  118  128 1   
   124  119  120 ar  
   125  119  121 ar  
   126  120  122 ar  
   127  120  129 1   
   128  121  123 ar  
   129  121  130 1   
   130  122  124 ar  
   131  122  131 1   
   132  123  124 ar  
   133  123  132 1   
   134  124  133 1   
   135  134  135 1   
   136  134  140 1   
   137  135  136 1   
   138  135  138 1   
   139  135  141 1   
   140  136  137 2   
   141  136  148 1   
   142  138  139 1   
   143  138  142 1   
   144  138  143 1   
   145  139  140 1   
   146  139  144 1   
   147  139  145 1   
   148  140  146 1   
   149  140  147 1   
   150  148  149 1   
   151  148  157 1   
   152  149  150 1   
   153  149  152 1   
   154  149  158 1   
   155  150  151 2   
   156  150  163 1   
   157  152  153 1   
   158  152  159 1   
   159  152  160 1   
   160  153  154 1   
   161  153  161 1   
   162  153  162 1   
   163  154  155 1   
   164  154  156 1   
   165  163  164 1   
   166  163  168 1   
   167  164  165 1   
   168  164  166 1   
   169  164  167 1   
   170  170  171 1   
   171  170  172 1   
   172  173  174 1   
   173  173  175 1   
@<TRIPOS>SUBSTRUCTURE
     1 MOL         1 TEMP              0 ****  ****    0 ROOT
