@<TRIPOS>MOLECULE
MOL
  185   180     1     0     0
SMALL
resp


@<TRIPOS>ATOM
      1 C1         -3.9330   -2.6490    3.8010 c3        1 MOL     -0.371181
      2 C2         -4.4700   -2.4820    2.3770 c         1 MOL      0.613359
      3 O1         -3.7020   -2.2100    1.4370 o         1 MOL     -0.536996
      4 H1         -2.9580   -3.1370    3.7660 hc        1 MOL      0.093730
      5 H2         -3.8330   -1.6700    4.2690 hc        1 MOL      0.093730
      6 H3         -4.6230   -3.2620    4.3810 hc        1 MOL      0.093730
      7 N1         -5.7630   -2.6060    2.1220 n         1 MOL     -0.426888
      8 C3         -6.4910   -2.2830    0.8840 c3        1 MOL     -0.172536
      9 C4         -6.4750   -0.7680    0.6090 c         1 MOL      0.461360
     10 O2         -6.3670   -0.3130   -0.5230 o         1 MOL     -0.450707
     11 C5         -6.0140   -3.1500   -0.2670 c3        1 MOL     -0.154807
     12 C6         -7.1220   -3.3100   -1.2690 c         1 MOL      0.715658
     13 O3         -6.8070   -3.2870   -2.5110 o         1 MOL     -0.640041
     14 O4         -8.2440   -3.7270   -0.9630 o         1 MOL     -0.640041
     15 H4         -6.3510   -2.9480    2.8670 hn        1 MOL      0.282812
     16 H5         -7.5370   -2.3990    1.1390 h1        1 MOL      0.075936
     17 H6         -5.8380   -4.1320    0.1640 hc        1 MOL      0.124492
     18 H7         -5.0820   -2.8950   -0.7850 hc        1 MOL      0.124492
     19 N2         -6.6070    0.0060    1.6920 n         1 MOL     -0.159768
     20 C7         -7.3180    1.3240    1.5470 c3        1 MOL     -0.175660
     21 C8         -6.5000    2.3600    0.8710 c         1 MOL      0.574004
     22 O5         -7.0720    3.3310    0.3950 o         1 MOL     -0.562027
     23 C9         -7.8980    1.8500    2.8680 c3        1 MOL     -0.120011
     24 C10        -9.0770    1.0040    3.3340 c3        1 MOL      0.305482
     25 C11        -9.6460    1.6170    4.6240 c3        1 MOL     -0.202501
     26 C12       -10.6550    0.7040    5.2430 c3        1 MOL      0.223501
     27 N3        -11.4350    1.3460    6.3080 n4        1 MOL     -0.262152
     28 H8         -6.4580   -0.3580    2.6270 hn        1 MOL      0.165396
     29 H9         -8.1310    1.1440    0.8540 h1        1 MOL      0.142477
     30 H10        -8.3080    2.8470    2.7030 hc        1 MOL      0.046514
     31 H11        -7.1470    1.9480    3.6630 hc        1 MOL      0.046514
     32 H12        -8.7830   -0.0220    3.5700 hc        1 MOL     -0.048638
     33 H13        -9.7790    0.8540    2.5050 hc        1 MOL     -0.048638
     34 H14       -10.1190    2.5660    4.3800 hc        1 MOL      0.050135
     35 H15        -8.8650    1.7280    5.3730 hc        1 MOL      0.050135
     36 H16       -10.2340   -0.2370    5.6120 hx        1 MOL      0.016612
     37 H17       -11.3090    0.3520    4.4440 hx        1 MOL      0.016612
     38 H18       -12.0470    0.6890    6.7710 hn        1 MOL      0.223031
     39 H19       -10.7890    1.7560    6.9710 hn        1 MOL      0.223031
     40 H20       -12.0870    2.0750    6.0530 hn        1 MOL      0.223031
     41 N4         -5.1630    2.3040    0.8300 n         1 MOL     -0.375718
     42 C13        -4.3070    3.1630    0.0360 c3        1 MOL      0.124542
     43 C14        -3.8120    2.4470   -1.2620 c         1 MOL      0.532083
     44 O6         -3.5240    1.2450   -1.2930 o         1 MOL     -0.503587
     45 C15        -3.1520    3.5460    0.9290 c3        1 MOL     -0.268386
     46 C16        -2.1810    4.5300    0.2530 c         1 MOL      0.780548
     47 O7         -1.0800    4.6900    0.7990 o         1 MOL     -0.762012
     48 O8         -2.4880    5.1070   -0.7800 o         1 MOL     -0.762012
     49 H21        -4.6970    1.5570    1.3320 hn        1 MOL      0.202779
     50 H22        -4.9370    3.9560   -0.3790 h1        1 MOL      0.007024
     51 H23        -2.5660    2.6390    1.0340 hc        1 MOL      0.092645
     52 H24        -3.4260    4.0050    1.8870 hc        1 MOL      0.092645
     53 N5         -3.6790    3.1870   -2.3870 n         1 MOL     -0.271864
     54 C17        -3.5010    2.8000   -3.7960 c3        1 MOL     -0.238024
     55 C18        -2.1840    2.0790   -4.2200 c         1 MOL      0.608687
     56 O9         -1.7180    2.2400   -5.3700 o         1 MOL     -0.586785
     57 H25        -3.7120    4.1750   -2.1610 hn        1 MOL      0.245930
     58 H26        -3.4630    3.6620   -4.4570 h1        1 MOL      0.114900
     59 H27        -4.4450    2.2690   -3.9230 h1        1 MOL      0.114900
     60 N6         -1.6680    1.2980   -3.3130 n         1 MOL     -0.385503
     61 C19        -0.3540    0.7030   -3.5050 c3        1 MOL     -0.201199
     62 C20        -0.4060   -0.7450   -3.8160 c         1 MOL      0.563494
     63 O10         0.6230   -1.3630   -3.9420 o         1 MOL     -0.535687
     64 C21         0.5370    0.9510   -2.2410 c3        1 MOL     -0.363538
     65 C22         0.9120    2.4270   -2.0400 c         1 MOL      0.721906
     66 N7          2.1240    2.7670   -2.3600 n         1 MOL     -0.694390
     67 O11         0.0320    3.2120   -1.6950 o         1 MOL     -0.657774
     68 H28        -2.0900    1.1770   -2.4090 hn        1 MOL      0.304610
     69 H29         0.1910    1.1400   -4.3480 h1        1 MOL      0.163076
     70 H30         1.4210    0.3170   -2.3010 hc        1 MOL      0.162076
     71 H31         0.0460    0.7010   -1.3040 hc        1 MOL      0.162076
     72 H32         2.9010    2.1580   -2.5790 hn        1 MOL      0.336073
     73 H33         2.3530    3.7520   -2.4040 hn        1 MOL      0.336073
     74 N8         -1.5680   -1.4490   -3.7180 n         1 MOL     -0.178414
     75 C23        -1.5310   -2.9200   -3.9340 c3        1 MOL     -0.489414
     76 C24        -0.9750   -3.7240   -2.7640 c         1 MOL      0.678364
     77 O12        -0.7360   -4.9390   -3.0130 o         1 MOL     -0.547775
     78 H34        -2.4710   -1.0320   -3.5290 hn        1 MOL      0.230008
     79 H35        -0.9170   -3.1090   -4.8210 h1        1 MOL      0.199275
     80 H36        -2.5020   -3.3940   -4.0290 h1        1 MOL      0.199275
     81 N9         -0.6970   -3.2590   -1.5650 n         1 MOL     -0.271913
     82 C25         0.1670   -4.0130   -0.6400 c3        1 MOL     -0.013504
     83 C26         1.1140   -3.1550    0.2100 c         1 MOL      0.619708
     84 O13         0.9330   -1.9980    0.3860 o         1 MOL     -0.507290
     85 C27        -0.6800   -4.8860    0.2860 c3        1 MOL     -0.043251
     86 C28        -1.7090   -5.7150   -0.4280 ca        1 MOL      0.146753
     87 C29        -3.0480   -5.2940   -0.5670 ca        1 MOL     -0.325154
     88 C30        -1.3130   -7.0350   -0.8710 ca        1 MOL     -0.325154
     89 C31        -3.9690   -6.0500   -1.2510 ca        1 MOL     -0.130132
     90 C32        -2.2090   -7.7520   -1.6320 ca        1 MOL     -0.130132
     91 C33        -3.5930   -7.2460   -1.8120 ca        1 MOL      0.230290
     92 O14        -4.4800   -7.9500   -2.5990 oh        1 MOL     -0.432513
     93 H37        -1.0030   -2.3350   -1.3000 hn        1 MOL      0.216107
     94 H38         0.7860   -4.6400   -1.2790 h1        1 MOL      0.049079
     95 H39        -1.3200   -4.2410    0.9070 hc        1 MOL      0.004641
     96 H40         0.0460   -5.3500    0.9480 hc        1 MOL      0.004641
     97 H41        -3.3780   -4.4140   -0.0440 ha        1 MOL      0.167110
     98 H42        -0.3130   -7.4200   -0.7190 ha        1 MOL      0.167110
     99 H43        -4.9950   -5.7480   -1.3650 ha        1 MOL      0.115260
    100 H44        -1.9990   -8.7390   -2.0460 ha        1 MOL      0.115260
    101 H45        -4.1360   -8.8430   -2.6840 ho        1 MOL      0.326032
    102 N10         2.1890   -3.7550    0.6830 n         1 MOL     -0.576396
    103 C34         3.2030   -3.0360    1.4880 c3        1 MOL     -0.134291
    104 C35         4.5010   -2.7800    0.5950 c         1 MOL      0.711128
    105 O15         5.0260   -1.7020    0.4920 o         1 MOL     -0.495418
    106 C36         3.4740   -3.7530    2.8660 c3        1 MOL      0.151973
    107 C37         2.1670   -3.8070    3.6250 c3        1 MOL     -0.116225
    108 C38         4.4870   -3.0040    3.7560 c3        1 MOL     -0.681108
    109 C39         2.2650   -4.5880    5.0120 c3        1 MOL     -0.403514
    110 H46         2.1330   -4.7470    0.8380 hn        1 MOL      0.313874
    111 H47         2.7290   -2.0780    1.7380 h1        1 MOL      0.122390
    112 H48         3.9730   -4.7150    2.7340 hc        1 MOL      0.001308
    113 H49         1.4560   -4.3750    3.0160 hc        1 MOL      0.124605
    114 H50         1.6540   -2.8510    3.7370 hc        1 MOL      0.124605
    115 H51         4.7900   -3.7530    4.4890 hc        1 MOL      0.194199
    116 H52         5.2850   -2.6570    3.0980 hc        1 MOL      0.194199
    117 H53         4.0430   -2.1490    4.2760 hc        1 MOL      0.194199
    118 H54         2.8280   -5.5120    4.8890 hc        1 MOL      0.107958
    119 H55         2.8300   -4.0120    5.7530 hc        1 MOL      0.107958
    120 H56         1.3200   -4.8380    5.4960 hc        1 MOL      0.107958
    121 N11         4.9550   -3.8940   -0.1100 n         1 MOL     -0.432376
    122 C40         6.1400   -3.9280   -0.9460 c3        1 MOL     -0.024452
    123 C41         7.3580   -3.1650   -0.4810 c         1 MOL      0.354229
    124 O16         8.1160   -2.7330   -1.3500 o         1 MOL     -0.465461
    125 C42         6.4910   -5.3470   -1.4180 c3        1 MOL      0.189483
    126 O17         5.4590   -5.9380   -2.1830 oh        1 MOL     -0.581434
    127 H57         4.4610   -4.7700   -0.0880 hn        1 MOL      0.258705
    128 H58         5.8030   -3.5080   -1.8930 h1        1 MOL      0.117673
    129 H59         6.6180   -5.9100   -0.4990 h1        1 MOL      0.018485
    130 H60         7.4820   -5.3480   -1.8880 h1        1 MOL      0.018485
    131 H61         5.6470   -6.8280   -2.4730 ho        1 MOL      0.406407
    132 N12         7.6300   -3.1380    0.8390 n         1 MOL     -0.322139
    133 C43         8.7100   -2.3570    1.4430 c3        1 MOL      0.317432
    134 C44         8.8240   -0.8680    0.9140 c         1 MOL      0.447463
    135 O18         9.9250   -0.3720    0.7280 o         1 MOL     -0.537163
    136 C45         9.9990   -3.2660    1.4450 c3        1 MOL     -0.447681
    137 H62         7.1000   -3.7080    1.4740 hn        1 MOL      0.218569
    138 H63         8.4150   -2.1780    2.4770 h1        1 MOL     -0.006559
    139 H64         9.9110   -4.1100    2.1300 hc        1 MOL      0.118701
    140 H65        10.1650   -3.6350    0.4320 hc        1 MOL      0.118701
    141 H66        10.8350   -2.6290    1.7560 hc        1 MOL      0.118701
    142 N13         7.7260   -0.1950    0.6280 n         1 MOL     -0.572746
    143 C46         7.6280    1.1680    0.1600 c3        1 MOL      0.685192
    144 C47         6.5450    1.8420    0.9760 c         1 MOL      0.132611
    145 O19         5.6410    1.2260    1.5350 o         1 MOL     -0.426598
    146 C48         7.1000    1.1940   -1.2780 c3        1 MOL     -0.281491
    147 H67         6.8870   -0.7150    0.8050 hn        1 MOL      0.228145
    148 H68         8.5670    1.7200    0.2380 h1        1 MOL     -0.073773
    149 H69         7.1130    2.2460   -1.5500 hc        1 MOL      0.069058
    150 H70         7.8670    0.7320   -1.8970 hc        1 MOL      0.069058
    151 H71         6.1210    0.7110   -1.3380 hc        1 MOL      0.069058
    152 N14         6.6910    3.1830    1.1030 n         1 MOL     -0.174110
    153 C49         5.9030    4.0390    1.9870 c3        1 MOL      0.016274
    154 C50         6.0440    3.7670    3.5040 c         1 MOL      0.343753
    155 O20         5.1530    4.0570    4.2980 o         1 MOL     -0.499080
    156 C51         4.5020    4.3980    1.4870 c3        1 MOL      0.160012
    157 C52         4.5810    4.9650    0.0720 c3        1 MOL      0.066539
    158 C53         3.1600    5.2650   -0.5340 c         1 MOL      0.632734
    159 O21         2.9560    5.2540   -1.7530 o         1 MOL     -0.710257
    160 O22         2.1900    5.5110    0.2310 o         1 MOL     -0.710257
    161 H72         7.4530    3.6640    0.6300 hn        1 MOL      0.189470
    162 H73         6.4450    4.9710    1.8300 h1        1 MOL      0.024034
    163 H74         4.0510    5.1690    2.1100 hc        1 MOL     -0.008931
    164 H75         3.8200    3.5490    1.4540 hc        1 MOL     -0.008931
    165 H76         5.1050    4.3680   -0.6640 hc        1 MOL     -0.070138
    166 H77         5.1630    5.8830    0.2060 hc        1 MOL     -0.070138
    167 N15         7.1210    3.1580    3.9060 n         1 MOL     -0.116730
    168 C54         7.4580    2.7720    5.3390 c3        1 MOL     -0.288159
    169 H78         8.4610    2.3450    5.3730 h1        1 MOL      0.125951
    170 H79         7.4190    3.6570    5.9740 h1        1 MOL      0.125951
    171 H80         6.7390    2.0360    5.6970 h1        1 MOL      0.125951
    172 H81         7.8140    3.1350    3.1840 hn        1 MOL      0.133699
    173 Ca1         0.0820    5.7770   -1.3610 Ca        1 MOL      1.749689
    174 O23         1.3310    7.8860   -2.3410 oh        1 MOL     -0.837509
    175 H82         0.9110    8.5940   -1.8540 ho        1 MOL      0.416498
    176 H83         2.1150    8.2790   -2.7190 ho        1 MOL      0.416498
    177 O24        -0.1100    5.1120   -3.9610 oh        1 MOL     -0.837509
    178 H84         0.1730    4.3300   -4.4460 ho        1 MOL      0.416498
    179 H85        -0.4930    5.6770   -4.6310 ho        1 MOL      0.416498
    180 O25        -0.1210    7.9190    0.2600 oh        1 MOL     -0.837509
    181 H86         0.4440    8.6470    0.5130 ho        1 MOL      0.416498
    182 H87        -0.8930    7.9920    0.8140 ho        1 MOL      0.416498
    183 O26        -1.9430    7.2330   -2.5630 oh        1 MOL     -0.837509
    184 H88        -2.7470    6.9550   -2.9990 ho        1 MOL      0.416498
    185 H89        -2.1730    8.0600   -2.1350 ho        1 MOL      0.416498
@<TRIPOS>BOND
     1    1    2 1   
     2    1    4 1   
     3    1    5 1   
     4    1    6 1   
     5    2    3 2   
     6    2    7 1   
     7    7    8 1   
     8    7   15 1   
     9    8    9 1   
    10    8   11 1   
    11    8   16 1   
    12    9   10 2   
    13    9   19 1   
    14   11   12 1   
    15   11   17 1   
    16   11   18 1   
    17   12   13 1   
    18   12   14 1   
    19   19   20 1   
    20   19   28 1   
    21   20   21 1   
    22   20   23 1   
    23   20   29 1   
    24   21   22 2   
    25   21   41 1   
    26   23   24 1   
    27   23   30 1   
    28   23   31 1   
    29   24   25 1   
    30   24   32 1   
    31   24   33 1   
    32   25   26 1   
    33   25   34 1   
    34   25   35 1   
    35   26   27 1   
    36   26   36 1   
    37   26   37 1   
    38   27   38 1   
    39   27   39 1   
    40   27   40 1   
    41   41   42 1   
    42   41   49 1   
    43   42   43 1   
    44   42   45 1   
    45   42   50 1   
    46   43   44 2   
    47   43   53 1   
    48   45   46 1   
    49   45   51 1   
    50   45   52 1   
    51   46   47 1   
    52   46   48 1   
    53   53   54 1   
    54   53   57 1   
    55   54   55 1   
    56   54   58 1   
    57   54   59 1   
    58   55   56 2   
    59   55   60 1   
    60   60   61 1   
    61   60   68 1   
    62   61   62 1   
    63   61   64 1   
    64   61   69 1   
    65   62   63 2   
    66   62   74 1   
    67   64   65 1   
    68   64   70 1   
    69   64   71 1   
    70   65   66 1   
    71   65   67 2   
    72   66   72 1   
    73   66   73 1   
    74   74   75 1   
    75   74   78 1   
    76   75   76 1   
    77   75   79 1   
    78   75   80 1   
    79   76   77 2   
    80   76   81 1   
    81   81   82 1   
    82   81   93 1   
    83   82   83 1   
    84   82   85 1   
    85   82   94 1   
    86   83   84 2   
    87   83  102 1   
    88   85   86 1   
    89   85   95 1   
    90   85   96 1   
    91   86   87 ar  
    92   86   88 ar  
    93   87   89 ar  
    94   87   97 1   
    95   88   90 ar  
    96   88   98 1   
    97   89   91 ar  
    98   89   99 1   
    99   90   91 ar  
   100   90  100 1   
   101   91   92 1   
   102   92  101 1   
   103  102  103 1   
   104  102  110 1   
   105  103  104 1   
   106  103  106 1   
   107  103  111 1   
   108  104  105 2   
   109  104  121 1   
   110  106  107 1   
   111  106  108 1   
   112  106  112 1   
   113  107  109 1   
   114  107  113 1   
   115  107  114 1   
   116  108  115 1   
   117  108  116 1   
   118  108  117 1   
   119  109  118 1   
   120  109  119 1   
   121  109  120 1   
   122  121  122 1   
   123  121  127 1   
   124  122  123 1   
   125  122  125 1   
   126  122  128 1   
   127  123  124 2   
   128  123  132 1   
   129  125  126 1   
   130  125  129 1   
   131  125  130 1   
   132  126  131 1   
   133  132  133 1   
   134  132  137 1   
   135  133  134 1   
   136  133  136 1   
   137  133  138 1   
   138  134  135 2   
   139  134  142 1   
   140  136  139 1   
   141  136  140 1   
   142  136  141 1   
   143  142  143 1   
   144  142  147 1   
   145  143  144 1   
   146  143  146 1   
   147  143  148 1   
   148  144  145 2   
   149  144  152 1   
   150  146  149 1   
   151  146  150 1   
   152  146  151 1   
   153  152  153 1   
   154  152  161 1   
   155  153  154 1   
   156  153  156 1   
   157  153  162 1   
   158  154  155 2   
   159  154  167 1   
   160  156  157 1   
   161  156  163 1   
   162  156  164 1   
   163  157  158 1   
   164  157  165 1   
   165  157  166 1   
   166  158  159 1   
   167  158  160 1   
   168  167  168 1   
   169  167  172 1   
   170  168  169 1   
   171  168  170 1   
   172  168  171 1   
   173  174  175 1   
   174  174  176 1   
   175  177  178 1   
   176  177  179 1   
   177  180  181 1   
   178  180  182 1   
   179  183  184 1   
   180  183  185 1   
@<TRIPOS>SUBSTRUCTURE
     1 MOL         1 TEMP              0 ****  ****    0 ROOT
