@<TRIPOS>MOLECULE
MOL
  191   184     1     0     0
SMALL
resp


@<TRIPOS>ATOM
      1 C1          1.3510    0.4670   -3.6450 c3        1 MOL     -0.444624
      2 C2          2.4280    0.5810   -2.5230 c         1 MOL      0.730292
      3 O1          2.4970   -0.2140   -1.5770 o         1 MOL     -0.602263
      4 H1          0.5970   -0.2640   -3.3530 hc        1 MOL      0.119766
      5 H2          0.8770    1.4370   -3.7940 hc        1 MOL      0.119766
      6 H3          1.8250    0.1480   -4.5740 hc        1 MOL      0.119766
      7 N1          3.2640    1.6420   -2.6470 n         1 MOL     -0.602378
      8 C3          4.4380    1.8570   -1.8430 c3        1 MOL      0.302678
      9 C4          4.5740    3.1540   -1.1380 c         1 MOL      0.361894
     10 O2          5.6960    3.5890   -0.7550 o         1 MOL     -0.416633
     11 C5          5.6680    1.4730   -2.6610 c3        1 MOL     -0.106253
     12 C6          5.8610    2.2640   -3.9130 c         1 MOL      0.699598
     13 O3          6.7420    1.9310   -4.7780 o         1 MOL     -0.685517
     14 O4          5.2080    3.2940   -4.0840 o         1 MOL     -0.685517
     15 H4          3.1110    2.1510   -3.5050 hn        1 MOL      0.290883
     16 H5          4.3500    1.1830   -0.9990 h1        1 MOL     -0.043018
     17 H6          5.6400    0.4050   -2.8630 hc        1 MOL      0.006628
     18 H7          6.5490    1.6060   -2.0400 hc        1 MOL      0.006628
     19 N2          3.4010    3.7670   -0.7740 n         1 MOL     -0.320997
     20 C7          3.1770    4.9380    0.0430 c3        1 MOL      0.106314
     21 C8          3.8770    4.6480    1.3690 c         1 MOL      0.467803
     22 O5          4.8950    5.2770    1.7090 o         1 MOL     -0.493577
     23 C9          3.6210    6.2470   -0.6800 c3        1 MOL     -0.231414
     24 C10         2.5500    6.8320   -1.6360 c3        1 MOL     -0.012653
     25 C11         2.9050    8.1920   -2.3800 c3        1 MOL     -0.076220
     26 C12         1.6670    8.6800   -3.0410 c3        1 MOL      0.092214
     27 N3          2.0070    9.8830   -3.8770 n4        1 MOL     -0.233132
     28 H8          2.5550    3.3150   -1.1020 hn        1 MOL      0.206614
     29 H9          2.1130    5.1120    0.2140 h1        1 MOL      0.064871
     30 H10         4.5740    6.1150   -1.1960 hc        1 MOL      0.086124
     31 H11         3.7450    6.9600    0.1370 hc        1 MOL      0.086124
     32 H12         1.5970    6.9320   -1.1120 hc        1 MOL      0.039061
     33 H13         2.4360    6.0580   -2.3950 hc        1 MOL      0.039061
     34 H14         3.6520    7.9780   -3.1440 hc        1 MOL      0.061691
     35 H15         3.3080    8.9680   -1.7340 hc        1 MOL      0.061691
     36 H16         0.9360    9.0390   -2.3170 hx        1 MOL      0.061464
     37 H17         1.2260    7.8570   -3.6120 hx        1 MOL      0.061464
     38 H18         2.4540    9.6360   -4.7510 hn        1 MOL      0.254920
     39 H19         1.1610   10.3550   -4.1850 hn        1 MOL      0.254920
     40 H20         2.6070   10.5620   -3.4370 hn        1 MOL      0.254920
     41 N4          3.4170    3.5790    2.0560 n         1 MOL     -0.408184
     42 C13         4.1730    2.9770    3.1340 c3        1 MOL      0.026116
     43 C14         5.0990    1.8990    2.5940 c         1 MOL      0.777679
     44 O6          4.7260    1.2520    1.6770 o         1 MOL     -0.547603
     45 C15         3.2270    2.4380    4.2290 c3        1 MOL     -0.244170
     46 C16         2.3220    1.3550    3.7350 c         1 MOL      0.610032
     47 O7          2.4990    0.1360    4.0670 o         1 MOL     -0.680395
     48 O8          1.3240    1.6670    3.0160 o         1 MOL     -0.680395
     49 H21         2.6300    3.0210    1.7640 hn        1 MOL      0.205212
     50 H22         4.8240    3.7470    3.5520 h1        1 MOL      0.062116
     51 H23         2.5330    3.2510    4.4230 hc        1 MOL      0.078381
     52 H24         3.7360    2.0970    5.1290 hc        1 MOL      0.078381
     53 N5          6.1630    1.6560    3.2510 n         1 MOL     -0.606809
     54 C17         7.0810    0.5420    2.9200 c3        1 MOL      0.108374
     55 C18         8.0260    0.7660    1.7030 c         1 MOL      0.559727
     56 O9          8.5740    1.8770    1.5660 o         1 MOL     -0.514515
     57 H25         6.5030    2.1220    4.0740 hn        1 MOL      0.352984
     58 H26         6.5450   -0.3740    2.6790 h1        1 MOL      0.017292
     59 H27         7.7290    0.4010    3.7910 h1        1 MOL      0.017292
     60 N6          8.2380   -0.2170    0.8180 n         1 MOL     -0.573239
     61 C19         7.6970   -1.6270    0.7360 c3        1 MOL      0.312630
     62 C20         7.0360   -1.6580   -0.6890 c         1 MOL      0.492769
     63 O10         7.6930   -1.5840   -1.6710 o         1 MOL     -0.479519
     64 C21         8.9580   -2.5700    0.8260 c3        1 MOL     -0.527192
     65 C22         8.7950   -3.9800    0.1930 c         1 MOL      0.733196
     66 N7          7.7090   -4.5540    0.4650 n         1 MOL     -0.791966
     67 O11         9.6170   -4.4820   -0.5560 o         1 MOL     -0.550182
     68 H28         8.5590    0.0940   -0.0870 hn        1 MOL      0.338244
     69 H29         6.9710   -1.8420    1.5130 h1        1 MOL      0.022982
     70 H30         9.1860   -2.7910    1.8690 hc        1 MOL      0.155702
     71 H31         9.7430   -2.1240    0.2080 hc        1 MOL      0.155702
     72 H32         7.0860   -4.2180    1.1940 hn        1 MOL      0.355671
     73 H33         7.5240   -5.4740    0.0930 hn        1 MOL      0.355671
     74 N8          5.8020   -2.1890   -0.8750 n         1 MOL     -0.418828
     75 C23         4.8670   -2.6010    0.1590 c3        1 MOL      0.048389
     76 C24         3.6320   -3.3480   -0.4620 c         1 MOL      0.691654
     77 O12         3.8290   -3.9730   -1.5250 o         1 MOL     -0.539210
     78 H34         5.5270   -2.3060   -1.8420 hn        1 MOL      0.319868
     79 H35         4.6630   -1.7490    0.8050 h1        1 MOL     -0.008771
     80 H36         5.3540   -3.2650    0.8660 h1        1 MOL     -0.008771
     81 N9          2.4320   -3.3170    0.1840 n         1 MOL     -0.917105
     82 C25         1.2910   -3.8140   -0.5160 c3        1 MOL      0.528222
     83 C26         0.0690   -2.8380   -0.5320 c         1 MOL      0.307833
     84 O13        -0.0960   -1.9470    0.2600 o         1 MOL     -0.491104
     85 C27         0.9190   -5.2150    0.0340 c3        1 MOL     -0.075541
     86 C28         0.2260   -6.1090   -0.8770 ca        1 MOL      0.026786
     87 C29        -1.1290   -6.5000   -0.5280 ca        1 MOL     -0.152332
     88 C30         0.8360   -6.5710   -2.0660 ca        1 MOL     -0.152332
     89 C31        -1.7940   -7.4180   -1.2580 ca        1 MOL     -0.318482
     90 C32         0.0470   -7.4880   -2.8440 ca        1 MOL     -0.318482
     91 C33        -1.2180   -8.0110   -2.3780 ca        1 MOL      0.404608
     92 O14        -1.8870   -9.0040   -3.0830 oh        1 MOL     -0.503281
     93 H37         2.3410   -3.0000    1.1430 hn        1 MOL      0.430854
     94 H38         1.5530   -4.0000   -1.5570 h1        1 MOL     -0.006316
     95 H39         0.3140   -5.1000    0.9410 hc        1 MOL      0.019242
     96 H40         1.7870   -5.7430    0.4310 hc        1 MOL      0.019242
     97 H41        -1.4410   -6.1780    0.4590 ha        1 MOL      0.153951
     98 H42         1.7800   -6.2260   -2.4620 ha        1 MOL      0.153951
     99 H43        -2.7460   -7.7580   -0.8930 ha        1 MOL      0.162639
    100 H44         0.4400   -7.7510   -3.8220 ha        1 MOL      0.162639
    101 H45        -1.2700   -9.4430   -3.6790 ho        1 MOL      0.374250
    102 N10        -0.8760   -3.1960   -1.3620 n         1 MOL     -0.248819
    103 C34        -2.1860   -2.5620   -1.3550 c3        1 MOL      0.000792
    104 C35        -3.0250   -2.7030   -0.0270 c         1 MOL      0.306185
    105 O15        -2.8730   -3.6610    0.6720 o         1 MOL     -0.537343
    106 C36        -2.9930   -2.9680   -2.6520 c3        1 MOL      0.291656
    107 C37        -3.3850   -4.4560   -2.6210 c3        1 MOL     -0.092599
    108 C38        -4.1630   -2.0850   -2.8820 c3        1 MOL     -0.422085
    109 C39        -3.8280   -5.2390   -3.9220 c3        1 MOL     -0.207757
    110 H46        -0.6180   -3.7930   -2.1290 hn        1 MOL      0.198046
    111 H47        -1.9810   -1.4970   -1.4140 h1        1 MOL      0.080726
    112 H48        -2.2520   -2.7380   -3.4180 hc        1 MOL     -0.024917
    113 H49        -4.2450   -4.5760   -1.9650 hc        1 MOL      0.085997
    114 H50        -2.4620   -4.9590   -2.3500 hc        1 MOL      0.085997
    115 H51        -4.5170   -2.2890   -3.8890 hc        1 MOL      0.102756
    116 H52        -5.0030   -2.3060   -2.2220 hc        1 MOL      0.102756
    117 H53        -3.8210   -1.0590   -2.7350 hc        1 MOL      0.102756
    118 H54        -4.4940   -4.6310   -4.5330 hc        1 MOL      0.057080
    119 H55        -3.0160   -5.6240   -4.5230 hc        1 MOL      0.057080
    120 H56        -4.3020   -6.1590   -3.5870 hc        1 MOL      0.057080
    121 N11        -3.7150   -1.5990    0.3270 n         1 MOL     -0.279423
    122 C40        -4.6200   -1.6400    1.4670 c3        1 MOL      0.385598
    123 C41        -4.7900   -0.3110    2.1870 c         1 MOL      0.247616
    124 O16        -4.6470    0.7590    1.5620 o         1 MOL     -0.403651
    125 C42        -5.9590   -2.2850    1.1480 c3        1 MOL     -0.005855
    126 O17        -6.7660   -1.5570    0.2660 oh        1 MOL     -0.564497
    127 H57        -3.7610   -0.7510   -0.2120 hn        1 MOL      0.224860
    128 H58        -4.1410   -2.2940    2.1950 h1        1 MOL     -0.061174
    129 H59        -6.4780   -2.5240    2.0760 h1        1 MOL      0.046830
    130 H60        -5.8270   -3.2440    0.6610 h1        1 MOL      0.046830
    131 H61        -7.6510   -1.9230    0.3020 ho        1 MOL      0.431075
    132 N12        -5.4830   -0.3130    3.3210 n         1 MOL     -0.442782
    133 C43        -6.1690    0.8060    3.9880 c3        1 MOL      0.236660
    134 C44        -7.1510    1.5400    3.0560 c         1 MOL      0.395056
    135 O18        -6.9800    2.7150    2.5800 o         1 MOL     -0.418056
    136 C45        -5.2170    1.8210    4.6100 c3        1 MOL     -0.446605
    137 H62        -5.6740   -1.2310    3.7020 hn        1 MOL      0.267876
    138 H63        -6.7750    0.2730    4.7210 h1        1 MOL      0.032144
    139 H64        -4.8760    1.4540    5.5790 hc        1 MOL      0.134461
    140 H65        -4.3400    1.9650    3.9770 hc        1 MOL      0.134461
    141 H66        -5.7340    2.7780    4.6730 hc        1 MOL      0.134461
    142 N13        -8.1880    0.7880    2.7570 n         1 MOL     -0.560327
    143 C46        -9.3610    1.0420    2.0040 c3        1 MOL      0.455844
    144 C47        -9.2580    1.6340    0.5730 c         1 MOL      0.142771
    145 O19       -10.2140    2.1990    0.0640 o         1 MOL     -0.421771
    146 C48       -10.3280    1.7680    2.8900 c3        1 MOL     -0.309225
    147 H67        -8.0400   -0.1580    3.0750 hn        1 MOL      0.293855
    148 H68        -9.7840    0.0360    1.9240 h1        1 MOL     -0.039705
    149 H69       -11.2480    1.9480    2.3270 hc        1 MOL      0.089550
    150 H70       -10.4900    1.1970    3.7970 hc        1 MOL      0.089550
    151 H71        -9.9500    2.7530    3.1460 hc        1 MOL      0.089550
    152 N14        -8.0600    1.5230   -0.1090 n         1 MOL     -0.075179
    153 C49        -7.8360    2.2880   -1.3010 c3        1 MOL     -0.075885
    154 C50        -8.7310    1.6950   -2.4140 c         1 MOL      0.398295
    155 O20        -9.1500    2.3800   -3.3670 o         1 MOL     -0.501812
    156 C51        -6.3050    2.1460   -1.6140 c3        1 MOL      0.464671
    157 C52        -5.8960    2.9610   -2.8420 c3        1 MOL     -0.394822
    158 C53        -5.1840    4.2630   -2.3550 c         1 MOL      0.758459
    159 O21        -3.9880    4.4890   -2.6540 o         1 MOL     -0.711302
    160 O22        -5.8690    5.0560   -1.7000 o         1 MOL     -0.711302
    161 H72        -7.3270    0.9720    0.3190 hn        1 MOL      0.089964
    162 H73        -8.1430    3.3190   -1.1500 h1        1 MOL      0.156986
    163 H74        -6.0820    1.0870   -1.7410 hc        1 MOL     -0.103423
    164 H75        -5.7190    2.5340   -0.7820 hc        1 MOL     -0.103423
    165 H76        -6.7200    3.1310   -3.5310 hc        1 MOL      0.043352
    166 H77        -5.2290    2.3490   -3.4560 hc        1 MOL      0.043352
    167 N15        -8.9910    0.3610   -2.3350 n         1 MOL     -0.189185
    168 C54        -9.6440   -0.3950   -3.4160 c3        1 MOL     -0.112063
    169 H78       -10.3360   -1.1180   -2.9850 h1        1 MOL      0.067819
    170 H79       -10.1920    0.2930   -4.0610 h1        1 MOL      0.067819
    171 H80        -8.8890   -0.9190   -4.0010 h1        1 MOL      0.067819
    172 H81        -8.5510   -0.1860   -1.6030 hn        1 MOL      0.122621
    173 Ca1         0.2860   -0.7790    2.5960 Ca        1 MOL      1.809499
    174 O23        -0.6220    1.0270    0.6450 oh        1 MOL     -0.881788
    175 O24        -1.9310    0.6310    3.1640 oh        1 MOL     -0.881788
    176 H82        -1.5480    1.0950    0.4360 ho        1 MOL      0.429049
    177 H83        -2.2280    0.5960    4.0780 ho        1 MOL      0.429049
    178 H84        -0.2500    1.8680    0.3800 ho        1 MOL      0.429049
    179 H85        -2.3640    1.4070    2.8090 ho        1 MOL      0.429049
    180 O25        -1.6000   -2.5780    3.1740 oh        1 MOL     -0.881788
    181 H86        -1.9740   -2.8660    4.0070 ho        1 MOL      0.429049
    182 H87        -1.9820   -3.1600    2.5220 ho        1 MOL      0.429049
    183 O26        -0.1080   -1.5180    5.2560 oh        1 MOL     -0.881788
    184 H88        -0.6870   -2.2560    5.4560 ho        1 MOL      0.429049
    185 H89         0.2050   -1.2260    6.1160 ho        1 MOL      0.429049
    186 O27         1.9580   -2.8230    3.1100 oh        1 MOL     -0.881788
    187 H90         1.7630   -3.7500    3.2400 ho        1 MOL      0.429049
    188 H91         2.7850   -2.6810    3.5780 ho        1 MOL      0.429049
    189 O28         2.5910   -0.2760    1.0840 oh        1 MOL     -0.881788
    190 H92         2.6460   -0.2450    0.1260 ho        1 MOL      0.429049
    191 H93         3.1120    0.4700    1.3840 ho        1 MOL      0.429049
@<TRIPOS>BOND
     1    1    2 1   
     2    1    4 1   
     3    1    5 1   
     4    1    6 1   
     5    2    3 2   
     6    2    7 1   
     7    7    8 1   
     8    7   15 1   
     9    8    9 1   
    10    8   11 1   
    11    8   16 1   
    12    9   10 2   
    13    9   19 1   
    14   11   12 1   
    15   11   17 1   
    16   11   18 1   
    17   12   13 1   
    18   12   14 1   
    19   19   20 1   
    20   19   28 1   
    21   20   21 1   
    22   20   23 1   
    23   20   29 1   
    24   21   22 2   
    25   21   41 1   
    26   23   24 1   
    27   23   30 1   
    28   23   31 1   
    29   24   25 1   
    30   24   32 1   
    31   24   33 1   
    32   25   26 1   
    33   25   34 1   
    34   25   35 1   
    35   26   27 1   
    36   26   36 1   
    37   26   37 1   
    38   27   38 1   
    39   27   39 1   
    40   27   40 1   
    41   41   42 1   
    42   41   49 1   
    43   42   43 1   
    44   42   45 1   
    45   42   50 1   
    46   43   44 2   
    47   43   53 1   
    48   45   46 1   
    49   45   51 1   
    50   45   52 1   
    51   46   47 1   
    52   46   48 1   
    53   53   54 1   
    54   53   57 1   
    55   54   55 1   
    56   54   58 1   
    57   54   59 1   
    58   55   56 2   
    59   55   60 1   
    60   60   61 1   
    61   60   68 1   
    62   61   62 1   
    63   61   64 1   
    64   61   69 1   
    65   62   63 2   
    66   62   74 1   
    67   64   65 1   
    68   64   70 1   
    69   64   71 1   
    70   65   66 1   
    71   65   67 2   
    72   66   72 1   
    73   66   73 1   
    74   74   75 1   
    75   74   78 1   
    76   75   76 1   
    77   75   79 1   
    78   75   80 1   
    79   76   77 2   
    80   76   81 1   
    81   81   82 1   
    82   81   93 1   
    83   82   83 1   
    84   82   85 1   
    85   82   94 1   
    86   83   84 2   
    87   83  102 1   
    88   85   86 1   
    89   85   95 1   
    90   85   96 1   
    91   86   87 ar  
    92   86   88 ar  
    93   87   89 ar  
    94   87   97 1   
    95   88   90 ar  
    96   88   98 1   
    97   89   91 ar  
    98   89   99 1   
    99   90   91 ar  
   100   90  100 1   
   101   91   92 1   
   102   92  101 1   
   103  102  103 1   
   104  102  110 1   
   105  103  104 1   
   106  103  106 1   
   107  103  111 1   
   108  104  105 2   
   109  104  121 1   
   110  106  107 1   
   111  106  108 1   
   112  106  112 1   
   113  107  109 1   
   114  107  113 1   
   115  107  114 1   
   116  108  115 1   
   117  108  116 1   
   118  108  117 1   
   119  109  118 1   
   120  109  119 1   
   121  109  120 1   
   122  121  122 1   
   123  121  127 1   
   124  122  123 1   
   125  122  125 1   
   126  122  128 1   
   127  123  124 2   
   128  123  132 1   
   129  125  126 1   
   130  125  129 1   
   131  125  130 1   
   132  126  131 1   
   133  132  133 1   
   134  132  137 1   
   135  133  134 1   
   136  133  136 1   
   137  133  138 1   
   138  134  135 2   
   139  134  142 1   
   140  136  139 1   
   141  136  140 1   
   142  136  141 1   
   143  142  143 1   
   144  142  147 1   
   145  143  144 1   
   146  143  146 1   
   147  143  148 1   
   148  144  145 2   
   149  144  152 1   
   150  146  149 1   
   151  146  150 1   
   152  146  151 1   
   153  152  153 1   
   154  152  161 1   
   155  153  154 1   
   156  153  156 1   
   157  153  162 1   
   158  154  155 2   
   159  154  167 1   
   160  156  157 1   
   161  156  163 1   
   162  156  164 1   
   163  157  158 1   
   164  157  165 1   
   165  157  166 1   
   166  158  159 1   
   167  158  160 1   
   168  167  168 1   
   169  167  172 1   
   170  168  169 1   
   171  168  170 1   
   172  168  171 1   
   173  174  176 1   
   174  174  178 1   
   175  175  177 1   
   176  175  179 1   
   177  180  181 1   
   178  180  182 1   
   179  183  184 1   
   180  183  185 1   
   181  186  187 1   
   182  186  188 1   
   183  189  190 1   
   184  189  191 1   
@<TRIPOS>SUBSTRUCTURE
     1 MOL         1 TEMP              0 ****  ****    0 ROOT
