@<TRIPOS>MOLECULE
MOL
  178   175     1     0     0
SMALL
resp


@<TRIPOS>ATOM
      1 C1          1.8970    6.9850   -1.6800 c3        1 MOL     -0.398681
      2 C2          3.2390    6.3400   -1.1550 c         1 MOL      0.770233
      3 O1          3.6230    6.6160   -0.0300 o         1 MOL     -0.606532
      4 H1          1.2310    7.1720   -0.8380 hc        1 MOL      0.091600
      5 H2          2.1180    7.9260   -2.1840 hc        1 MOL      0.091600
      6 H3          1.4140    6.3020   -2.3800 hc        1 MOL      0.091600
      7 N1          3.8890    5.4370   -1.8760 n         1 MOL     -0.760485
      8 C3          5.1330    4.8800   -1.3250 c3        1 MOL      0.400479
      9 C4          4.8950    3.8360   -0.2600 c         1 MOL      0.857504
     10 O2          3.9390    3.1000   -0.3000 o         1 MOL     -0.676073
     11 C5          5.9900    4.3270   -2.4620 c3        1 MOL     -0.346418
     12 C6          7.4400    4.0040   -2.2350 c         1 MOL      0.753745
     13 O3          7.9230    4.4270   -1.1970 o         1 MOL     -0.740117
     14 O4          8.0770    3.3220   -3.1090 o         1 MOL     -0.740117
     15 H4          3.4730    5.2060   -2.7730 hn        1 MOL      0.351816
     16 H5          5.7210    5.5960   -0.7530 h1        1 MOL     -0.023033
     17 H6          5.9440    5.0300   -3.3040 hc        1 MOL      0.038384
     18 H7          5.4960    3.4580   -2.8770 hc        1 MOL      0.038384
     19 N2          5.8420    3.8440    0.7090 n         1 MOL     -0.910306
     20 C7          5.9500    2.8470    1.7720 c3        1 MOL      0.640829
     21 C8          4.7580    2.9200    2.6990 c         1 MOL      0.334291
     22 O5          4.2520    4.0210    2.8680 o         1 MOL     -0.490746
     23 C9          7.3130    2.9420    2.4990 c3        1 MOL     -0.634408
     24 H8          6.6300    4.4680    0.6290 hn        1 MOL      0.411755
     25 H9          5.9660    1.8730    1.2880 h1        1 MOL      0.020516
     26 H10         7.4290    4.0130    2.6790 hc        1 MOL      0.159903
     27 H11         7.3950    2.2380    3.3220 hc        1 MOL      0.159903
     28 H12         8.0400    2.7570    1.7130 hc        1 MOL      0.159903
     29 N3          4.2900    1.7550    3.2730 n         1 MOL     -0.313991
     30 C10         4.9120    0.4120    3.4390 c3        1 MOL     -0.135448
     31 C11         5.2250   -0.3900    2.1480 c         1 MOL      0.585217
     32 O6          4.6110   -0.1690    1.1180 o         1 MOL     -0.512443
     33 C12         3.9910   -0.4020    4.3630 c3        1 MOL     -0.131653
     34 C13         2.5450   -0.4660    3.7890 c         1 MOL      0.631333
     35 O7          1.6740    0.2760    4.3230 o         1 MOL     -0.678774
     36 O8          2.2190   -1.0970    2.7700 o         1 MOL     -0.678774
     37 H13         3.4050    1.8730    3.7460 hn        1 MOL      0.245614
     38 H14         5.9250    0.5250    3.8290 h1        1 MOL      0.053461
     39 H15         3.9030   -0.0190    5.3720 hc        1 MOL      0.059911
     40 H16         4.3420   -1.4290    4.4150 hc        1 MOL      0.059911
     41 N4          6.2600   -1.2530    2.1640 n         1 MOL     -0.555871
     42 C14         6.7410   -2.0680    1.0570 c3        1 MOL      0.078920
     43 C15         7.5970   -1.3970    0.0580 c         1 MOL      0.576417
     44 O9          8.0610   -0.2630    0.2760 o         1 MOL     -0.565311
     45 H17         6.6500   -1.5600    3.0410 hn        1 MOL      0.321796
     46 H18         5.8830   -2.3980    0.4700 h1        1 MOL      0.070993
     47 H19         7.3070   -2.9540    1.3220 h1        1 MOL      0.070993
     48 N5          7.7020   -1.8940   -1.1630 n         1 MOL     -0.479019
     49 C16         7.3210   -3.1990   -1.6770 c3        1 MOL     -0.012850
     50 C17         6.1250   -3.1130   -2.6890 c         1 MOL      0.466657
     51 O10         5.8400   -4.0440   -3.4860 o         1 MOL     -0.513117
     52 C18         8.6360   -3.7630   -2.3400 c3        1 MOL     -0.073348
     53 C19         9.6750   -4.1090   -1.3380 c         1 MOL      0.595167
     54 N6         10.8780   -3.5530   -1.5530 n         1 MOL     -0.780827
     55 O11         9.4080   -4.9120   -0.4140 o         1 MOL     -0.549065
     56 H20         8.2410   -1.2930   -1.7750 hn        1 MOL      0.305729
     57 H21         6.9730   -3.8050   -0.8370 h1        1 MOL      0.072468
     58 H22         9.1020   -3.0990   -3.0650 hc        1 MOL      0.046981
     59 H23         8.4720   -4.6700   -2.9140 hc        1 MOL      0.046981
     60 H24        11.0690   -3.0320   -2.4010 hn        1 MOL      0.368463
     61 H25        11.6040   -3.9260   -0.9610 hn        1 MOL      0.368463
     62 N7          5.3940   -1.9780   -2.6950 n         1 MOL     -0.312878
     63 C20         4.1120   -1.7320   -3.4600 c3        1 MOL     -0.275537
     64 C21         2.8350   -2.2670   -2.8860 c         1 MOL      0.653171
     65 O12         1.8460   -2.4940   -3.5460 o         1 MOL     -0.590139
     66 H26         5.7130   -1.2410   -2.0840 hn        1 MOL      0.290023
     67 H27         4.2940   -2.1420   -4.4550 h1        1 MOL      0.142384
     68 H28         3.8300   -0.6880   -3.6180 h1        1 MOL      0.142384
     69 N8          2.9020   -2.5290   -1.5770 n         1 MOL     -0.305780
     70 C22         1.9480   -3.3640   -0.6900 c3        1 MOL     -0.343978
     71 C23         0.5800   -2.7630   -0.3810 c         1 MOL      0.804000
     72 O13         0.4250   -1.9640    0.5420 o         1 MOL     -0.688158
     73 C24         2.6820   -3.8690    0.5330 c3        1 MOL      0.213931
     74 C25         3.7760   -4.8290    0.1680 c3        1 MOL     -0.408822
     75 O14         3.3800   -2.8910    1.3480 oh        1 MOL     -0.516021
     76 H29         3.7620   -2.3360   -1.0870 hn        1 MOL      0.239907
     77 H30         1.7480   -4.2020   -1.3600 h1        1 MOL      0.146174
     78 H31         1.9360   -4.4020    1.1160 h1        1 MOL      0.100052
     79 H32         2.7780   -2.2070    1.6130 ho        1 MOL      0.400041
     80 H33         4.2200   -5.3500    1.0260 hc        1 MOL      0.108796
     81 H34         3.4690   -5.6040   -0.5420 hc        1 MOL      0.108796
     82 H35         4.5600   -4.3860   -0.4310 hc        1 MOL      0.108796
     83 N9         -0.3740   -3.0960   -1.2300 n         1 MOL     -0.475053
     84 C26        -1.7450   -2.5500   -1.1580 c3        1 MOL     -0.118647
     85 C27        -2.4930   -3.1040    0.0080 c         1 MOL      0.595455
     86 O15        -2.5720   -4.2960    0.2030 o         1 MOL     -0.557432
     87 C28        -2.3970   -2.8190   -2.5290 c3        1 MOL      0.007032
     88 C29        -3.6860   -1.9930   -2.8020 c3        1 MOL      0.183965
     89 C30        -1.5000   -2.4720   -3.7520 c3        1 MOL     -0.080491
     90 C31        -4.7170   -2.5920   -3.7920 c3        1 MOL     -0.269490
     91 H36        -0.2100   -3.7620   -1.9710 hn        1 MOL      0.294685
     92 H37        -1.7140   -1.4630   -1.0780 h1        1 MOL      0.121845
     93 H38        -2.7680   -3.8330   -2.5530 hc        1 MOL      0.014898
     94 H39        -3.3390   -1.0380   -3.1800 hc        1 MOL     -0.069519
     95 H40        -4.3100   -1.8650   -1.9060 hc        1 MOL     -0.069519
     96 H41        -0.7660   -1.7010   -3.5750 hc        1 MOL      0.039115
     97 H42        -0.8890   -3.3230   -4.0730 hc        1 MOL      0.039115
     98 H43        -2.0480   -2.2180   -4.6570 hc        1 MOL      0.039115
     99 H44        -5.6820   -2.1030   -3.7700 hc        1 MOL      0.050610
    100 H45        -4.3220   -2.6420   -4.8090 hc        1 MOL      0.050610
    101 H46        -5.0100   -3.6120   -3.4990 hc        1 MOL      0.050610
    102 N10        -3.1460   -2.1970    0.7990 n         1 MOL     -0.168282
    103 C32        -4.0630   -2.5920    1.8820 c3        1 MOL     -0.006541
    104 C33        -5.5280   -2.3010    1.6090 c         1 MOL      0.340160
    105 O16        -6.3410   -2.9430    2.2220 o         1 MOL     -0.496165
    106 C34        -3.6290   -2.0530    3.2520 c3        1 MOL      0.096709
    107 C35        -2.2390   -2.4880    3.5400 c         1 MOL      0.599787
    108 O17        -2.1450   -3.6420    3.9520 o         1 MOL     -0.676752
    109 O18        -1.2820   -1.7590    3.1730 o         1 MOL     -0.676752
    110 H47        -3.1970   -1.2320    0.5260 hn        1 MOL      0.196247
    111 H48        -4.0070   -3.6720    1.8990 h1        1 MOL      0.100331
    112 H49        -4.2700   -2.4120    4.0510 hc        1 MOL     -0.060210
    113 H50        -3.7090   -0.9680    3.2630 hc        1 MOL     -0.060210
    114 N11        -5.8840   -1.2860    0.7930 n         1 MOL     -0.531001
    115 C36        -7.2700   -0.9160    0.5520 c3        1 MOL      0.421876
    116 C37        -7.4150    0.6200    0.2580 c         1 MOL      0.110755
    117 O19        -7.9190    1.0020   -0.8200 o         1 MOL     -0.444569
    118 C38        -8.0480   -1.9800   -0.3320 c3        1 MOL     -0.567826
    119 C39        -9.5000   -1.9870   -0.3750 ca        1 MOL      0.234220
    120 C40       -10.1790   -1.8830   -1.5690 ca        1 MOL     -0.127903
    121 C41       -10.2830   -1.9460    0.8370 ca        1 MOL     -0.127903
    122 C42       -11.5750   -1.7800   -1.6400 ca        1 MOL     -0.183813
    123 C43       -11.6740   -2.1040    0.7790 ca        1 MOL     -0.183813
    124 C44       -12.3010   -1.9240   -0.4910 ca        1 MOL     -0.073678
    125 H51        -5.1800   -0.6840    0.3840 hn        1 MOL      0.433048
    126 H52        -7.7050   -1.0670    1.5400 h1        1 MOL      0.026228
    127 H53        -7.6020   -2.8810    0.0830 hc        1 MOL      0.185362
    128 H54        -7.6640   -1.8480   -1.3530 hc        1 MOL      0.185362
    129 H55        -9.6900   -1.6570   -2.5000 ha        1 MOL      0.106193
    130 H56        -9.6810   -1.8990    1.7350 ha        1 MOL      0.106193
    131 H57       -12.0640   -1.4140   -2.5270 ha        1 MOL      0.122623
    132 H58       -12.2690   -2.0920    1.6730 ha        1 MOL      0.122623
    133 H59       -13.3670   -1.8160   -0.5350 ha        1 MOL      0.080568
    134 N12        -6.8730    1.4960    1.1580 n         1 MOL      0.108261
    135 C45        -6.8770    2.9840    1.0380 c3        1 MOL     -0.067906
    136 C46        -6.3650    3.4810   -0.3430 c         1 MOL      0.238481
    137 O20        -6.7220    4.5560   -0.7740 o         1 MOL     -0.502086
    138 C47        -6.1390    3.6020    2.2180 c3        1 MOL      0.104568
    139 C48        -6.4300    2.4930    3.2290 c3        1 MOL     -0.039516
    140 C49        -6.3900    1.1760    2.4150 c3        1 MOL     -0.194959
    141 H60        -7.9230    3.2580    1.1680 h1        1 MOL      0.087685
    142 H61        -5.0640    3.6560    2.0540 hc        1 MOL      0.003544
    143 H62        -6.4930    4.5580    2.6030 hc        1 MOL      0.003544
    144 H63        -5.6770    2.4630    4.0180 hc        1 MOL      0.006264
    145 H64        -7.4430    2.5860    3.6160 hc        1 MOL      0.006264
    146 H65        -5.3410    0.8940    2.3030 h1        1 MOL      0.099272
    147 H66        -7.0020    0.4360    2.9210 h1        1 MOL      0.099272
    148 N13        -5.4680    2.7440   -0.9800 n         1 MOL      0.017531
    149 C50        -4.6870    3.0940   -2.2570 c3        1 MOL     -0.329522
    150 C51        -5.6190    3.0260   -3.5150 c         1 MOL      0.608087
    151 O21        -5.4840    3.8490   -4.3930 o         1 MOL     -0.567603
    152 C52        -3.4400    2.1900   -2.4930 c3        1 MOL     -0.002180
    153 C53        -2.3770    2.1820   -1.3850 c3        1 MOL     -0.138605
    154 C54        -2.6550    1.1160   -0.3010 c         1 MOL      0.854929
    155 O22        -1.7370    0.6190    0.4090 o         1 MOL     -0.876749
    156 O23        -3.7770    0.7520   -0.0580 o         1 MOL     -0.876749
    157 H67        -5.0700    2.0150   -0.4210 hn        1 MOL      0.220500
    158 H68        -4.3110    4.1100   -2.1330 h1        1 MOL      0.139964
    159 H69        -2.9790    2.5820   -3.4090 hc        1 MOL      0.042241
    160 H70        -3.8500    1.1910   -2.6370 hc        1 MOL      0.042241
    161 H71        -2.3690    3.1540   -0.8840 hc        1 MOL      0.054326
    162 H72        -1.3720    2.0650   -1.7920 hc        1 MOL      0.054326
    163 N14        -6.5710    2.1190   -3.5440 n         1 MOL     -0.253956
    164 C55        -7.7320    2.0110   -4.4510 c3        1 MOL     -0.281389
    165 H73        -8.5630    2.5890   -4.0470 h1        1 MOL      0.117298
    166 H74        -7.4640    2.3990   -5.4340 h1        1 MOL      0.117298
    167 H75        -8.0270    0.9650   -4.5410 h1        1 MOL      0.117298
    168 H76        -6.5470    1.4590   -2.7680 hn        1 MOL      0.219025
    169 Ca1        -0.0050    0.2070    2.1450 Ca        1 MOL      1.766361
    170 O24        -1.3010    0.9060    4.4080 oh        1 MOL     -0.850457
    171 H77        -2.0860    1.4250    4.2640 ho        1 MOL      0.419431
    172 H78        -1.3940    0.5850    5.3070 ho        1 MOL      0.419431
    173 O25         2.2600    1.4040    1.0270 oh        1 MOL     -0.850457
    174 H79         2.4730    2.2720    0.6910 ho        1 MOL      0.419431
    175 H80         3.1030    0.9480    1.0430 ho        1 MOL      0.419431
    176 O26        -0.0770    2.8920    2.4480 oh        1 MOL     -0.850457
    177 H81        -0.1370    3.2820    3.3210 ho        1 MOL      0.419431
    178 H82        -0.4270    3.5570    1.8610 ho        1 MOL      0.419431
@<TRIPOS>BOND
     1    1    2 1   
     2    1    4 1   
     3    1    5 1   
     4    1    6 1   
     5    2    3 2   
     6    2    7 1   
     7    7    8 1   
     8    7   15 1   
     9    8    9 1   
    10    8   11 1   
    11    8   16 1   
    12    9   10 2   
    13    9   19 1   
    14   11   12 1   
    15   11   17 1   
    16   11   18 1   
    17   12   13 1   
    18   12   14 1   
    19   19   20 1   
    20   19   24 1   
    21   20   21 1   
    22   20   23 1   
    23   20   25 1   
    24   21   22 2   
    25   21   29 1   
    26   23   26 1   
    27   23   27 1   
    28   23   28 1   
    29   29   30 1   
    30   29   37 1   
    31   30   31 1   
    32   30   33 1   
    33   30   38 1   
    34   31   32 2   
    35   31   41 1   
    36   33   34 1   
    37   33   39 1   
    38   33   40 1   
    39   34   35 1   
    40   34   36 1   
    41   41   42 1   
    42   41   45 1   
    43   42   43 1   
    44   42   46 1   
    45   42   47 1   
    46   43   44 2   
    47   43   48 1   
    48   48   49 1   
    49   48   56 1   
    50   49   50 1   
    51   49   52 1   
    52   49   57 1   
    53   50   51 2   
    54   50   62 1   
    55   52   53 1   
    56   52   58 1   
    57   52   59 1   
    58   53   54 1   
    59   53   55 2   
    60   54   60 1   
    61   54   61 1   
    62   62   63 1   
    63   62   66 1   
    64   63   64 1   
    65   63   67 1   
    66   63   68 1   
    67   64   65 2   
    68   64   69 1   
    69   69   70 1   
    70   69   76 1   
    71   70   71 1   
    72   70   73 1   
    73   70   77 1   
    74   71   72 2   
    75   71   83 1   
    76   73   74 1   
    77   73   75 1   
    78   73   78 1   
    79   74   80 1   
    80   74   81 1   
    81   74   82 1   
    82   75   79 1   
    83   83   84 1   
    84   83   91 1   
    85   84   85 1   
    86   84   87 1   
    87   84   92 1   
    88   85   86 2   
    89   85  102 1   
    90   87   88 1   
    91   87   89 1   
    92   87   93 1   
    93   88   90 1   
    94   88   94 1   
    95   88   95 1   
    96   89   96 1   
    97   89   97 1   
    98   89   98 1   
    99   90   99 1   
   100   90  100 1   
   101   90  101 1   
   102  102  103 1   
   103  102  110 1   
   104  103  104 1   
   105  103  106 1   
   106  103  111 1   
   107  104  105 2   
   108  104  114 1   
   109  106  107 1   
   110  106  112 1   
   111  106  113 1   
   112  107  108 1   
   113  107  109 1   
   114  114  115 1   
   115  114  125 1   
   116  115  116 1   
   117  115  118 1   
   118  115  126 1   
   119  116  117 2   
   120  116  134 1   
   121  118  119 1   
   122  118  127 1   
   123  118  128 1   
   124  119  120 ar  
   125  119  121 ar  
   126  120  122 ar  
   127  120  129 1   
   128  121  123 ar  
   129  121  130 1   
   130  122  124 ar  
   131  122  131 1   
   132  123  124 ar  
   133  123  132 1   
   134  124  133 1   
   135  134  135 1   
   136  134  140 1   
   137  135  136 1   
   138  135  138 1   
   139  135  141 1   
   140  136  137 2   
   141  136  148 1   
   142  138  139 1   
   143  138  142 1   
   144  138  143 1   
   145  139  140 1   
   146  139  144 1   
   147  139  145 1   
   148  140  146 1   
   149  140  147 1   
   150  148  149 1   
   151  148  157 1   
   152  149  150 1   
   153  149  152 1   
   154  149  158 1   
   155  150  151 2   
   156  150  163 1   
   157  152  153 1   
   158  152  159 1   
   159  152  160 1   
   160  153  154 1   
   161  153  161 1   
   162  153  162 1   
   163  154  155 1   
   164  154  156 1   
   165  163  164 1   
   166  163  168 1   
   167  164  165 1   
   168  164  166 1   
   169  164  167 1   
   170  170  171 1   
   171  170  172 1   
   172  173  174 1   
   173  173  175 1   
   174  176  177 1   
   175  176  178 1   
@<TRIPOS>SUBSTRUCTURE
     1 MOL         1 TEMP              0 ****  ****    0 ROOT
