@<TRIPOS>MOLECULE
MOL
  189   185     1     0     0
SMALL
resp


@<TRIPOS>ATOM
      1 C1         10.0070    1.5910    0.6990 c3        1 MOL     -0.480260
      2 C2          8.7600    0.9210    0.1860 c         1 MOL      0.794205
      3 O1          7.7030    0.8390    0.8560 o         1 MOL     -0.700300
      4 H1         10.4930    0.9440    1.4290 hc        1 MOL      0.129354
      5 H2         10.6870    1.7780   -0.1300 hc        1 MOL      0.129354
      6 H3          9.7430    2.5370    1.1730 hc        1 MOL      0.129354
      7 N1          8.7420    0.3870   -1.0420 n         1 MOL     -0.667858
      8 C3          7.4690    0.0450   -1.7990 c3        1 MOL      0.109503
      9 C4          6.9870   -1.4390   -1.4080 c         1 MOL      0.372098
     10 O2          6.9730   -2.4110   -2.1980 o         1 MOL     -0.454712
     11 C5          7.6090    0.1970   -3.3630 c3        1 MOL     -0.239699
     12 C6          8.6760   -0.6660   -4.0120 c         1 MOL      0.764731
     13 O3          8.6230   -0.8380   -5.1920 o         1 MOL     -0.643134
     14 O4          9.6690   -1.0460   -3.3460 o         1 MOL     -0.643134
     15 H4          9.5720    0.6170   -1.5780 hn        1 MOL      0.321166
     16 H5          6.6890    0.7420   -1.5180 h1        1 MOL      0.078618
     17 H6          7.8750    1.2320   -3.6010 hc        1 MOL      0.077930
     18 H7          6.6710   -0.0250   -3.8730 hc        1 MOL      0.077930
     19 N2          6.7320   -1.6630   -0.1140 n         1 MOL     -0.113631
     20 C7          6.4970   -2.9570    0.5260 c3        1 MOL     -0.100203
     21 C8          5.0790   -3.4390    0.4010 c         1 MOL      0.554767
     22 O5          4.8780   -4.6450    0.2100 o         1 MOL     -0.550691
     23 C9          6.8540   -2.9570    2.0120 c3        1 MOL      0.114000
     24 C10         8.4170   -2.8150    2.2600 c3        1 MOL     -0.016221
     25 C11         8.7130   -3.1540    3.6620 c3        1 MOL      0.004926
     26 C12        10.1760   -2.6610    3.8540 c3        1 MOL      0.025933
     27 N3         10.7640   -2.7880    5.2120 n4        1 MOL     -0.220431
     28 H8          6.8740   -0.8140    0.4250 hn        1 MOL      0.204304
     29 H9          7.2080   -3.7050    0.1740 h1        1 MOL      0.097346
     30 H10         6.5230   -3.9000    2.4440 hc        1 MOL     -0.025279
     31 H11         6.3500   -2.1630    2.5610 hc        1 MOL     -0.025279
     32 H12         8.5240   -1.7560    2.0140 hc        1 MOL      0.022893
     33 H13         8.9540   -3.4360    1.5330 hc        1 MOL      0.022893
     34 H14         8.6120   -4.2180    3.8620 hc        1 MOL      0.026067
     35 H15         8.1130   -2.6810    4.4350 hc        1 MOL      0.026067
     36 H16        10.0430   -1.6370    3.4950 hx        1 MOL      0.063151
     37 H17        10.8390   -3.0930    3.1020 hx        1 MOL      0.063151
     38 H18        10.8550   -3.7590    5.4910 hn        1 MOL      0.239943
     39 H19        11.7090   -2.4400    5.2190 hn        1 MOL      0.239943
     40 H20        10.2080   -2.5020    6.0120 hn        1 MOL      0.239943
     41 N4          4.0220   -2.6240    0.5120 n         1 MOL     -0.468219
     42 C13         3.9080   -1.1820    0.9630 c3        1 MOL     -0.007773
     43 C14         3.7040   -0.1610   -0.1330 c         1 MOL      0.241348
     44 O6          3.2630   -0.4900   -1.2260 o         1 MOL     -0.421996
     45 C15         2.8580   -1.0180    2.0030 c3        1 MOL     -0.010974
     46 C16         1.5320   -1.5620    1.5000 c         1 MOL      0.523332
     47 O7          0.9750   -0.9250    0.5390 o         1 MOL     -0.610209
     48 O8          1.0190   -2.5650    2.0720 o         1 MOL     -0.610209
     49 H21         3.1640   -3.1300    0.3960 hn        1 MOL      0.347456
     50 H22         4.7910   -0.8190    1.4900 h1        1 MOL      0.104623
     51 H23         2.7900    0.0470    2.2550 hc        1 MOL     -0.004915
     52 H24         3.1210   -1.6290    2.8660 hc        1 MOL     -0.004915
     53 N5          4.1570    1.1230    0.0960 n         1 MOL     -0.082616
     54 C17         4.1090    2.2880   -0.8520 c3        1 MOL     -0.297304
     55 C18         2.6330    2.6660   -1.1850 c         1 MOL      0.699824
     56 O9          1.7050    2.1710   -0.5770 o         1 MOL     -0.664025
     57 H25         4.5660    1.3580    0.9900 hn        1 MOL      0.213218
     58 H26         4.6960    2.0070   -1.7230 h1        1 MOL      0.118781
     59 H27         4.6110    3.1210   -0.3710 h1        1 MOL      0.118781
     60 N6          2.4750    3.6150   -2.0830 n         1 MOL     -0.542111
     61 C19         1.2640    4.3770   -2.4620 c3        1 MOL      0.230205
     62 C20         1.4790    5.8950   -2.5800 c         1 MOL      0.457773
     63 O10         2.6560    6.2920   -2.6530 o         1 MOL     -0.527964
     64 C21         0.7430    3.8530   -3.8080 c3        1 MOL     -0.243155
     65 C22         0.6600    2.3240   -3.8670 c         1 MOL      0.672667
     66 O11        -0.1890    1.8500   -3.1220 o         1 MOL     -0.647607
     67 O12         1.3110    1.7050   -4.7300 o         1 MOL     -0.647607
     68 H28         3.3270    3.7960   -2.6020 hn        1 MOL      0.330019
     69 H29         0.5270    4.3270   -1.6620 h1        1 MOL      0.009805
     70 H30         1.4860    4.2230   -4.5260 hc        1 MOL      0.055669
     71 H31        -0.2420    4.2660   -4.0080 hc        1 MOL      0.055669
     72 N7          0.4260    6.7830   -2.6100 n         1 MOL     -0.470871
     73 C23        -1.0690    6.5990   -2.4750 c3        1 MOL     -0.087279
     74 C24        -1.6270    6.0450   -1.2010 c         1 MOL      0.609767
     75 O13        -1.1630    6.4810   -0.1670 o         1 MOL     -0.525547
     76 H32         0.6360    7.7730   -2.6840 hn        1 MOL      0.325750
     77 H33        -1.3920    6.0520   -3.3690 h1        1 MOL      0.084496
     78 H34        -1.4780    7.6050   -2.6060 h1        1 MOL      0.084496
     79 N8         -2.6540    5.2120   -1.2840 n         1 MOL     -0.580783
     80 C25        -3.2020    4.4950   -0.1590 c3        1 MOL      0.053788
     81 C26        -2.0900    3.6350    0.4010 c         1 MOL      0.931593
     82 O14        -1.5920    2.7060   -0.2260 o         1 MOL     -0.826616
     83 C27        -4.4070    3.4720   -0.4390 c3        1 MOL      0.379242
     84 C28        -5.5830    4.0200   -1.1970 c3        1 MOL     -0.333188
     85 O15        -4.8200    3.1580    0.8530 oh        1 MOL     -0.727436
     86 H35        -3.0480    5.0810   -2.1970 hn        1 MOL      0.300636
     87 H36        -3.3960    5.1990    0.6580 h1        1 MOL      0.047089
     88 H37        -4.0390    2.6150   -0.9980 h1        1 MOL     -0.014621
     89 H38        -5.5650    2.5560    0.7880 ho        1 MOL      0.425236
     90 H39        -5.4300    4.4490   -2.1860 hc        1 MOL      0.086126
     91 H40        -6.3230    3.2380   -1.3560 hc        1 MOL      0.086126
     92 H41        -6.0810    4.8940   -0.7830 hc        1 MOL      0.086126
     93 N9         -1.8290    3.7860    1.6780 n         1 MOL     -0.534873
     94 C29        -1.0400    2.9520    2.5980 c3        1 MOL      0.183977
     95 C30        -1.5870    1.5350    2.6400 c         1 MOL      0.502122
     96 O16        -1.5130    0.7370    1.7120 o         1 MOL     -0.463564
     97 C31         0.4590    2.9780    2.3600 c3        1 MOL      0.156731
     98 C32         1.0360    4.3810    2.1890 c3        1 MOL     -0.025232
     99 C33         1.1740    2.1420    3.4460 c3        1 MOL     -0.368537
    100 C34         1.1890    5.1660    3.4610 c3        1 MOL     -0.406612
    101 H42        -2.2310    4.6310    2.0700 hn        1 MOL      0.246210
    102 H43        -1.2600    3.3880    3.5750 h1        1 MOL      0.025448
    103 H44         0.5410    2.4680    1.4030 hc        1 MOL     -0.040579
    104 H45         0.4180    4.9380    1.4840 hc        1 MOL      0.079292
    105 H46         2.0390    4.2850    1.7950 hc        1 MOL      0.079292
    106 H47         0.7480    2.6050    4.3330 hc        1 MOL      0.092436
    107 H48         0.9430    1.0760    3.4430 hc        1 MOL      0.092436
    108 H49         2.2380    2.3510    3.5040 hc        1 MOL      0.092436
    109 H50         2.0270    4.7210    3.9950 hc        1 MOL      0.098253
    110 H51         1.4130    6.1820    3.1330 hc        1 MOL      0.098253
    111 H52         0.2810    5.1830    4.0740 hc        1 MOL      0.098253
    112 N10        -2.2500    1.2060    3.7170 n         1 MOL     -0.602045
    113 C35        -2.6010   -0.2690    3.9900 c3        1 MOL     -0.152119
    114 C36        -3.9300   -0.8340    3.4820 c         1 MOL      0.405455
    115 O17        -4.1500   -2.0120    3.7440 o         1 MOL     -0.513379
    116 C37        -2.3850   -0.5440    5.4810 c3        1 MOL      0.609087
    117 C38        -3.4050    0.1600    6.4530 c3        1 MOL     -0.325809
    118 O18        -1.0910   -0.2710    6.0340 oh        1 MOL     -0.680330
    119 H53        -2.4840    1.8490    4.4620 hn        1 MOL      0.329805
    120 H54        -1.8720   -0.9490    3.5450 h1        1 MOL      0.140814
    121 H55        -2.4970   -1.6070    5.6840 h1        1 MOL     -0.037158
    122 H56        -0.3890   -0.7230    5.5690 ho        1 MOL      0.398641
    123 H57        -3.3630    1.2450    6.4510 hc        1 MOL      0.079230
    124 H58        -4.3570   -0.3230    6.2030 hc        1 MOL      0.079230
    125 H59        -3.2770   -0.1560    7.4910 hc        1 MOL      0.079230
    126 N11        -4.6740   -0.0980    2.6960 n         1 MOL     -0.216168
    127 C39        -5.9220   -0.6370    2.1370 c3        1 MOL     -0.006935
    128 C40        -5.7510   -1.2310    0.7010 c         1 MOL      0.515540
    129 O19        -4.9550   -0.7150   -0.0900 o         1 MOL     -0.449380
    130 C41        -7.0210    0.3060    2.3740 c3        1 MOL      0.508574
    131 C42        -7.2750    0.5590    3.9190 c3        1 MOL     -0.286779
    132 O20        -6.8620    1.4780    1.6700 oh        1 MOL     -0.671924
    133 H60        -4.4320    0.8360    2.4130 hn        1 MOL      0.245131
    134 H61        -6.1010   -1.5260    2.7320 h1        1 MOL      0.051165
    135 H62        -7.9470   -0.1720    2.0400 h1        1 MOL     -0.108169
    136 H63        -7.3520    2.2140    2.0530 ho        1 MOL      0.419033
    137 H64        -6.5170    1.2580    4.2870 hc        1 MOL      0.066055
    138 H65        -8.2620    0.9660    4.1380 hc        1 MOL      0.066055
    139 H66        -7.1790   -0.4250    4.3770 hc        1 MOL      0.066055
    140 N12        -6.5070   -2.3620    0.4360 n         1 MOL     -0.502853
    141 C43        -6.7230   -3.0100   -0.8760 c3        1 MOL      0.132237
    142 C44        -5.3700   -3.0900   -1.6930 c         1 MOL      0.470111
    143 O21        -5.2740   -2.7810   -2.8870 o         1 MOL     -0.510077
    144 C45        -7.8690   -2.3070   -1.6240 c3        1 MOL     -0.192782
    145 C46        -9.1890   -2.1220   -0.8020 c3        1 MOL     -0.063321
    146 C47       -10.4570   -1.7920   -1.6790 c3        1 MOL      0.129296
    147 C48       -11.6450   -1.1020   -0.9940 c3        1 MOL     -0.042614
    148 N13       -12.7770   -0.9220   -1.9290 n4        1 MOL     -0.105891
    149 H67        -7.2230   -2.5650    1.1200 hn        1 MOL      0.260523
    150 H68        -7.0380   -4.0550   -0.7860 h1        1 MOL      0.074331
    151 H69        -8.0290   -2.7930   -2.5840 hc        1 MOL      0.085307
    152 H70        -7.5210   -1.3010   -1.8940 hc        1 MOL      0.085307
    153 H71        -8.9550   -1.2520   -0.1820 hc        1 MOL      0.045604
    154 H72        -9.5130   -3.0040   -0.2340 hc        1 MOL      0.045604
    155 H73       -10.8210   -2.6040   -2.2970 hc        1 MOL     -0.006132
    156 H74       -10.0390   -1.0800   -2.3940 hc        1 MOL     -0.006132
    157 H75       -11.2500   -0.1280   -0.6890 hx        1 MOL      0.062242
    158 H76       -11.8510   -1.7390   -0.1380 hx        1 MOL      0.062242
    159 H77       -13.0450   -1.8310   -2.2880 hn        1 MOL      0.173649
    160 H78       -13.4650   -0.4160   -1.4050 hn        1 MOL      0.173649
    161 H79       -12.5920   -0.3810   -2.7570 hn        1 MOL      0.173649
    162 N14        -4.2960   -3.6030   -1.0310 n         1 MOL     -0.592674
    163 C49        -2.8910   -3.6660   -1.5300 c3        1 MOL      0.731147
    164 C50        -1.8430   -2.9570   -0.6630 c         1 MOL      0.193416
    165 O22        -1.3910   -1.8900   -1.1210 o         1 MOL     -0.646537
    166 C51        -2.5500   -5.0910   -1.9390 c3        1 MOL     -0.126920
    167 C52        -3.0710   -5.2790   -3.3510 c3        1 MOL     -0.475811
    168 C53        -2.8470   -6.8200   -3.6310 c         1 MOL      0.768124
    169 O23        -1.6970   -7.3000   -3.6530 o         1 MOL     -0.630132
    170 O24        -3.8440   -7.5590   -3.9090 o         1 MOL     -0.630132
    171 H80        -4.4620   -4.0170   -0.1200 hn        1 MOL      0.260219
    172 H81        -2.8290   -3.0280   -2.4060 h1        1 MOL     -0.014286
    173 H82        -2.9090   -5.8530   -1.2550 hc        1 MOL      0.041673
    174 H83        -1.4640   -5.1290   -1.9310 hc        1 MOL      0.041673
    175 H84        -2.4540   -4.8200   -4.1230 hc        1 MOL      0.135845
    176 H85        -4.1310   -5.0400   -3.4030 hc        1 MOL      0.135845
    177 N15        -1.4050   -3.4330    0.4990 n         1 MOL     -0.174814
    178 C54        -1.7760   -4.6810    1.2260 c3        1 MOL      0.000226
    179 H86        -1.5630   -4.5600    2.2880 h1        1 MOL      0.035948
    180 H87        -2.8390   -4.8800    1.0890 h1        1 MOL      0.035948
    181 H88        -1.1960   -5.5160    0.8330 h1        1 MOL      0.035948
    182 H89        -0.6810   -2.8890    0.9400 hn        1 MOL      0.220909
    183 Ca1        -0.4030    0.4470   -0.9590 Ca        1 MOL      1.773743
    184 O25         1.1110   -1.3390   -2.8460 oh        1 MOL     -0.868753
    185 H90         1.0820   -2.2970   -2.8410 ho        1 MOL      0.422278
    186 H91         1.9520   -1.1190   -2.4370 ho        1 MOL      0.422278
    187 O26        -3.0800    0.4050   -1.8370 oh        1 MOL     -0.868753
    188 H92        -3.7890    0.1190   -1.2700 ho        1 MOL      0.422278
    189 H93        -3.4900    0.6010   -2.6690 ho        1 MOL      0.422278
@<TRIPOS>BOND
     1    1    2 1   
     2    1    4 1   
     3    1    5 1   
     4    1    6 1   
     5    2    3 2   
     6    2    7 1   
     7    7    8 1   
     8    7   15 1   
     9    8    9 1   
    10    8   11 1   
    11    8   16 1   
    12    9   10 2   
    13    9   19 1   
    14   11   12 1   
    15   11   17 1   
    16   11   18 1   
    17   12   13 1   
    18   12   14 1   
    19   19   20 1   
    20   19   28 1   
    21   20   21 1   
    22   20   23 1   
    23   20   29 1   
    24   21   22 2   
    25   21   41 1   
    26   23   24 1   
    27   23   30 1   
    28   23   31 1   
    29   24   25 1   
    30   24   32 1   
    31   24   33 1   
    32   25   26 1   
    33   25   34 1   
    34   25   35 1   
    35   26   27 1   
    36   26   36 1   
    37   26   37 1   
    38   27   38 1   
    39   27   39 1   
    40   27   40 1   
    41   41   42 1   
    42   41   49 1   
    43   42   43 1   
    44   42   45 1   
    45   42   50 1   
    46   43   44 2   
    47   43   53 1   
    48   45   46 1   
    49   45   51 1   
    50   45   52 1   
    51   46   47 1   
    52   46   48 1   
    53   53   54 1   
    54   53   57 1   
    55   54   55 1   
    56   54   58 1   
    57   54   59 1   
    58   55   56 2   
    59   55   60 1   
    60   60   61 1   
    61   60   68 1   
    62   61   62 1   
    63   61   64 1   
    64   61   69 1   
    65   62   63 2   
    66   62   72 1   
    67   64   65 1   
    68   64   70 1   
    69   64   71 1   
    70   65   66 1   
    71   65   67 1   
    72   72   73 1   
    73   72   76 1   
    74   73   74 1   
    75   73   77 1   
    76   73   78 1   
    77   74   75 2   
    78   74   79 1   
    79   79   80 1   
    80   79   86 1   
    81   80   81 1   
    82   80   83 1   
    83   80   87 1   
    84   81   82 2   
    85   81   93 1   
    86   83   84 1   
    87   83   85 1   
    88   83   88 1   
    89   84   90 1   
    90   84   91 1   
    91   84   92 1   
    92   85   89 1   
    93   93   94 1   
    94   93  101 1   
    95   94   95 1   
    96   94   97 1   
    97   94  102 1   
    98   95   96 2   
    99   95  112 1   
   100   97   98 1   
   101   97   99 1   
   102   97  103 1   
   103   98  100 1   
   104   98  104 1   
   105   98  105 1   
   106   99  106 1   
   107   99  107 1   
   108   99  108 1   
   109  100  109 1   
   110  100  110 1   
   111  100  111 1   
   112  112  113 1   
   113  112  119 1   
   114  113  114 1   
   115  113  116 1   
   116  113  120 1   
   117  114  115 2   
   118  114  126 1   
   119  116  117 1   
   120  116  118 1   
   121  116  121 1   
   122  117  123 1   
   123  117  124 1   
   124  117  125 1   
   125  118  122 1   
   126  126  127 1   
   127  126  133 1   
   128  127  128 1   
   129  127  130 1   
   130  127  134 1   
   131  128  129 2   
   132  128  140 1   
   133  130  131 1   
   134  130  132 1   
   135  130  135 1   
   136  131  137 1   
   137  131  138 1   
   138  131  139 1   
   139  132  136 1   
   140  140  141 1   
   141  140  149 1   
   142  141  142 1   
   143  141  144 1   
   144  141  150 1   
   145  142  143 2   
   146  142  162 1   
   147  144  145 1   
   148  144  151 1   
   149  144  152 1   
   150  145  146 1   
   151  145  153 1   
   152  145  154 1   
   153  146  147 1   
   154  146  155 1   
   155  146  156 1   
   156  147  148 1   
   157  147  157 1   
   158  147  158 1   
   159  148  159 1   
   160  148  160 1   
   161  148  161 1   
   162  162  163 1   
   163  162  171 1   
   164  163  164 1   
   165  163  166 1   
   166  163  172 1   
   167  164  165 2   
   168  164  177 1   
   169  166  167 1   
   170  166  173 1   
   171  166  174 1   
   172  167  168 1   
   173  167  175 1   
   174  167  176 1   
   175  168  169 1   
   176  168  170 1   
   177  177  178 1   
   178  177  182 1   
   179  178  179 1   
   180  178  180 1   
   181  178  181 1   
   182  184  185 1   
   183  184  186 1   
   184  187  188 1   
   185  187  189 1   
@<TRIPOS>SUBSTRUCTURE
     1 MOL         1 TEMP              0 ****  ****    0 ROOT
