@<TRIPOS>MOLECULE
MOL
  189   185     1     0     0
SMALL
resp


@<TRIPOS>ATOM
      1 C1         -4.7760   -4.7440   -2.7870 c3        1 MOL     -0.386253
      2 C2         -5.4090   -3.8180   -1.7180 c         1 MOL      0.801027
      3 O1         -4.6450   -3.2940   -0.8800 o         1 MOL     -0.618356
      4 H1         -3.7380   -4.9480   -2.5220 hc        1 MOL      0.096055
      5 H2         -5.3310   -5.6820   -2.8300 hc        1 MOL      0.096055
      6 H3         -4.8140   -4.2540   -3.7600 hc        1 MOL      0.096055
      7 N1         -6.6710   -3.4560   -1.7560 n         1 MOL     -0.714784
      8 C3         -7.2450   -2.1890   -1.0930 c3        1 MOL      0.255832
      9 C4         -6.2660   -1.0640   -1.1490 c         1 MOL      0.109159
     10 O2         -5.8120   -0.5900   -0.0890 o         1 MOL     -0.234232
     11 C5         -8.0390   -2.4370    0.2280 c3        1 MOL     -0.088903
     12 C6         -7.5150   -3.6460    1.0670 c         1 MOL      0.662743
     13 O3         -6.2870   -3.6570    1.2790 o         1 MOL     -0.712965
     14 O4         -8.3330   -4.4690    1.6120 o         1 MOL     -0.712965
     15 H4         -7.4090   -3.8740   -2.3040 hn        1 MOL      0.327682
     16 H5         -8.0370   -1.7810   -1.7300 h1        1 MOL      0.047238
     17 H6         -9.0900   -2.6110   -0.0130 hc        1 MOL     -0.001544
     18 H7         -7.9380   -1.5270    0.8110 hc        1 MOL     -0.001544
     19 N2         -5.9770   -0.6730   -2.3550 n         1 MOL     -0.256511
     20 C7         -5.2580    0.5890   -2.8380 c3        1 MOL      0.070897
     21 C8         -5.9560    1.8850   -2.3300 c         1 MOL      0.462141
     22 O5         -6.5880    2.5500   -3.1210 o         1 MOL     -0.554406
     23 C9         -3.7390    0.5280   -2.5850 c3        1 MOL      0.242962
     24 C10        -3.0120    1.7140   -3.2820 c3        1 MOL     -0.236610
     25 C11        -3.1640   -0.8350   -2.9310 c3        1 MOL      0.099703
     26 C12        -3.1220    1.8710   -4.8200 c3        1 MOL     -0.154207
     27 H8         -6.4850   -1.1040   -3.1140 hn        1 MOL      0.221500
     28 H9         -5.4150    0.6170   -3.9180 h1        1 MOL      0.036097
     29 H10        -3.5670    0.7070   -1.5210 hc        1 MOL     -0.249348
     30 H11        -1.9390    1.5560   -3.1850 hc        1 MOL      0.116652
     31 H12        -3.3310    2.5850   -2.7150 hc        1 MOL      0.116652
     32 H13        -3.5920   -1.1240   -3.8970 hc        1 MOL     -0.044168
     33 H14        -2.0860   -0.7670   -3.0890 hc        1 MOL     -0.044168
     34 H15        -3.3810   -1.6340   -2.2250 hc        1 MOL     -0.044168
     35 H16        -4.1900    1.9000   -5.0550 hc        1 MOL      0.027567
     36 H17        -2.6210    2.7960   -5.1140 hc        1 MOL      0.027567
     37 H18        -2.7500    1.0440   -5.4160 hc        1 MOL      0.027567
     38 N3         -5.8090    2.1110   -0.9870 n         1 MOL     -0.294031
     39 C13        -6.6790    3.1040   -0.3530 c3        1 MOL      0.231964
     40 C14        -5.8770    4.3970   -0.1490 c         1 MOL      0.432218
     41 O6         -6.4600    5.4720   -0.3920 o         1 MOL     -0.586578
     42 C15        -7.1290    2.4660    0.9790 c3        1 MOL     -0.220340
     43 C16        -8.0950    1.2780    0.9550 c         1 MOL      0.740991
     44 O7         -8.2920    0.6680    2.0370 o         1 MOL     -0.696864
     45 O8         -8.7550    0.9850   -0.0540 o         1 MOL     -0.696864
     46 H19        -5.3280    1.4070   -0.4400 hn        1 MOL      0.213476
     47 H20        -7.5650    3.4060   -0.9080 h1        1 MOL      0.034778
     48 H21        -7.6120    3.2950    1.4950 hc        1 MOL      0.042168
     49 H22        -6.2400    2.0960    1.4860 hc        1 MOL      0.042168
     50 N4         -4.6500    4.5250    0.3660 n         1 MOL     -0.429569
     51 C17        -3.8350    3.4990    0.8100 c3        1 MOL     -0.024493
     52 C18        -2.7620    4.0510    1.7180 c         1 MOL      0.647970
     53 O9         -2.5540    5.2650    1.8450 o         1 MOL     -0.606085
     54 H23        -4.1990    5.4260    0.2700 hn        1 MOL      0.286993
     55 H24        -3.4200    2.9750   -0.0550 h1        1 MOL      0.101949
     56 H25        -4.4220    2.7470    1.3390 h1        1 MOL      0.101949
     57 N5         -2.1250    3.1820    2.5030 n         1 MOL     -0.550526
     58 C19        -2.2450    1.7210    2.7250 c3        1 MOL      0.094571
     59 C20        -2.3280    0.9050    1.4350 c         1 MOL      0.042428
     60 O10        -3.3640    0.4270    1.0610 o         1 MOL     -0.426395
     61 C21        -3.2990    1.5380    3.7950 c3        1 MOL     -0.220044
     62 C22        -3.4730    0.1170    4.3270 c         1 MOL      0.680119
     63 O11        -3.9210   -0.1130    5.4660 o         1 MOL     -0.692264
     64 O12        -3.1490   -0.8230    3.5810 o         1 MOL     -0.692264
     65 H26        -1.5220    3.6020    3.1990 hn        1 MOL      0.305191
     66 H27        -1.2910    1.4490    3.1820 h1        1 MOL      0.131188
     67 H28        -4.2260    2.0370    3.4920 hc        1 MOL      0.068026
     68 H29        -2.9970    2.0860    4.6870 hc        1 MOL      0.068026
     69 N6         -1.2390    0.6960    0.6170 n         1 MOL     -0.068673
     70 C23         0.0650    1.2870    0.7310 c3        1 MOL     -0.127119
     71 C24         0.2130    2.6490   -0.0170 c         1 MOL      0.826125
     72 O13        -0.5860    3.0050   -0.8790 o         1 MOL     -0.627993
     73 H30        -1.3740    0.1120   -0.1900 hn        1 MOL      0.238113
     74 H31         0.8150    0.5960    0.3740 h1        1 MOL      0.040346
     75 H32         0.3310    1.5070    1.7630 h1        1 MOL      0.040346
     76 N7          1.2800    3.3560    0.2950 n         1 MOL     -0.672482
     77 C25         1.6050    4.6740   -0.3180 c3        1 MOL      0.009711
     78 C26         2.5060    4.4320   -1.5710 c         1 MOL      0.424912
     79 O14         3.2310    5.3590   -1.9290 o         1 MOL     -0.533364
     80 C27         2.2190    5.5560    0.8090 c3        1 MOL     -0.042372
     81 C28         1.1030    6.0770    1.7100 c3        1 MOL     -0.067931
     82 C29         1.5540    6.7660    3.0490 c         1 MOL      0.601571
     83 N8          0.7270    7.6450    3.5810 n         1 MOL     -0.800119
     84 O15         2.6350    6.5130    3.6250 o         1 MOL     -0.562629
     85 H33         1.9200    2.9940    0.9910 hn        1 MOL      0.330323
     86 H34         0.6560    5.0790   -0.6680 h1        1 MOL      0.135938
     87 H35         2.6790    6.4850    0.4870 hc        1 MOL      0.044691
     88 H36         2.9550    5.0120    1.4060 hc        1 MOL      0.044691
     89 H37         0.3490    5.3240    1.9230 hc        1 MOL      0.043396
     90 H38         0.6070    6.7700    1.0200 hc        1 MOL      0.043396
     91 H39        -0.1980    7.8550    3.2600 hn        1 MOL      0.370630
     92 H40         0.9810    7.8870    4.5270 hn        1 MOL      0.370630
     93 N9          2.5170    3.2310   -2.1140 n         1 MOL     -0.066756
     94 C30         3.1140    2.9270   -3.4080 c3        1 MOL     -0.195224
     95 C31         4.5320    2.2570   -3.3490 c         1 MOL      0.602715
     96 O16         5.0530    1.7810   -4.3630 o         1 MOL     -0.537855
     97 C32         2.1230    2.0190   -4.2140 c3        1 MOL      0.194389
     98 C33         0.7200    2.6680   -4.3780 c3        1 MOL     -0.252865
     99 C34         1.8700    0.5960   -3.7970 c3        1 MOL     -0.252865
    100 H41         1.8930    2.5800   -1.6620 hn        1 MOL      0.088886
    101 H42         3.3230    3.8110   -4.0040 h1        1 MOL      0.129586
    102 H43         2.6010    1.8890   -5.1840 hc        1 MOL     -0.003748
    103 H44         0.1720    2.1200   -5.1390 hc        1 MOL      0.069914
    104 H45         0.2170    2.5370   -3.4240 hc        1 MOL      0.069914
    105 H46         0.7820    3.7170   -4.6640 hc        1 MOL      0.069914
    106 H47         2.8560    0.1360   -3.7500 hc        1 MOL      0.069914
    107 H48         1.2210    0.6140   -2.9260 hc        1 MOL      0.069914
    108 H49         1.3550    0.1000   -4.6140 hc        1 MOL      0.069914
    109 N10         5.2040    2.2440   -2.2040 n         1 MOL     -0.618632
    110 C35         6.5960    1.8850   -2.0850 c3        1 MOL      0.546761
    111 C36         6.8850    0.3780   -2.0740 c         1 MOL      0.414909
    112 O17         7.8820   -0.0120   -2.7870 o         1 MOL     -0.540860
    113 C37         7.2580    2.4220   -0.8170 c3        1 MOL     -0.520594
    114 C38         7.0630    3.8950   -0.6200 c         1 MOL      0.827107
    115 N11         6.4600    4.4350    0.4130 n         1 MOL     -0.845627
    116 O18         7.3830    4.7010   -1.4580 o         1 MOL     -0.590796
    117 H50         4.7490    2.6550   -1.4030 hn        1 MOL      0.251990
    118 H51         7.1870    2.1940   -2.9510 h1        1 MOL     -0.017115
    119 H52         8.3200    2.2120   -0.7290 hc        1 MOL      0.108287
    120 H53         6.7790    1.8910   -0.0010 hc        1 MOL      0.108287
    121 H54         6.0550    3.8350    1.1110 hn        1 MOL      0.370896
    122 H55         6.1760    5.4000    0.3910 hn        1 MOL      0.370896
    123 N12         6.2120   -0.3910   -1.1920 n         1 MOL     -0.551996
    124 C39         6.4700   -1.8510   -1.0430 c3        1 MOL      0.522433
    125 C40         5.2730   -2.5170   -0.2760 c         1 MOL      0.229106
    126 O19         4.4020   -1.9710    0.3520 o         1 MOL     -0.414432
    127 C41         7.8340   -2.1150   -0.3350 c3        1 MOL      0.088011
    128 C42         8.3560   -1.1700    0.7570 ca        1 MOL     -0.069369
    129 C43         7.6940   -1.1850    2.0250 ca        1 MOL     -0.063502
    130 C44         9.3980   -0.3710    0.4280 ca        1 MOL     -0.063502
    131 C45         8.2100   -0.3040    2.9740 ca        1 MOL     -0.283298
    132 C46         9.9210    0.4620    1.4440 ca        1 MOL     -0.283298
    133 C47         9.3750    0.4830    2.7310 ca        1 MOL      0.309626
    134 O20         9.8340    1.3450    3.6210 oh        1 MOL     -0.429274
    135 H56         5.5310    0.0020   -0.5590 hn        1 MOL      0.251002
    136 H57         6.4970   -2.4170   -1.9810 h1        1 MOL     -0.059242
    137 H58         8.6400   -2.2260   -1.0670 hc        1 MOL     -0.034159
    138 H59         7.8010   -3.1190    0.0970 hc        1 MOL     -0.034159
    139 H60         6.8640   -1.8070    2.3370 ha        1 MOL      0.111389
    140 H61         9.8920   -0.3600   -0.5300 ha        1 MOL      0.111389
    141 H62         7.7700   -0.2810    3.9540 ha        1 MOL      0.140111
    142 H63        10.7890    1.0870    1.2490 ha        1 MOL      0.140111
    143 H64        10.5380    1.9290    3.3430 ho        1 MOL      0.315716
    144 N13         5.3200   -3.8700   -0.2140 n         1 MOL     -0.351063
    145 C48         4.4580   -4.7040    0.5770 c3        1 MOL     -0.044697
    146 C49         2.9480   -4.8560    0.2070 c         1 MOL      0.458613
    147 O21         2.3150   -5.8850    0.4010 o         1 MOL     -0.521077
    148 C50         4.6060   -4.4990    2.0510 c3        1 MOL     -0.051374
    149 C51         5.9290   -4.9140    2.6260 c3        1 MOL      0.033147
    150 C52         6.1540   -4.6710    4.0140 c         1 MOL      0.545931
    151 O22         6.0030   -5.5660    4.8510 o         1 MOL     -0.671877
    152 O23         6.5420   -3.5330    4.4370 o         1 MOL     -0.671877
    153 H65         6.1930   -4.2260   -0.5840 hn        1 MOL      0.227690
    154 H66         4.8140   -5.7250    0.4750 h1        1 MOL      0.096982
    155 H67         3.8410   -4.9980    2.6570 hc        1 MOL      0.061354
    156 H68         4.5140   -3.4370    2.3060 hc        1 MOL      0.061354
    157 H69         6.6930   -4.3520    2.0770 hc        1 MOL     -0.034637
    158 H70         6.0820   -5.9850    2.4720 hc        1 MOL     -0.034637
    159 N14         2.3950   -3.9930   -0.6830 n         1 MOL     -0.239926
    160 C53         1.0790   -4.2840   -1.4300 c3        1 MOL     -0.271408
    161 C54         1.2620   -5.1660   -2.7600 c         1 MOL      0.437273
    162 O24         0.3400   -5.6200   -3.4640 o         1 MOL     -0.524673
    163 C55         0.4320   -2.9900   -1.9700 c3        1 MOL      0.081732
    164 C56         0.1260   -2.0230   -0.8260 c3        1 MOL      0.296962
    165 C57        -1.0070   -2.4380    0.1340 c         1 MOL      0.618597
    166 O25        -2.1900   -2.0460   -0.0800 o         1 MOL     -0.681601
    167 O26        -0.8130   -3.2800    1.0500 o         1 MOL     -0.681601
    168 H71         2.9260   -3.1840   -0.9480 hn        1 MOL      0.203075
    169 H72         0.3860   -4.6910   -0.6950 h1        1 MOL      0.225457
    170 H73        -0.4890   -3.2990   -2.4660 hc        1 MOL     -0.003141
    171 H74         1.0060   -2.4800   -2.7450 hc        1 MOL     -0.003141
    172 H75        -0.1100   -1.0480   -1.2560 hc        1 MOL     -0.124672
    173 H76         1.0510   -1.8550   -0.2790 hc        1 MOL     -0.124672
    174 N15         2.5220   -5.4180   -3.0980 n         1 MOL     -0.075458
    175 C58         2.9650   -6.2480   -4.1950 c3        1 MOL     -0.300381
    176 H77         4.0200   -6.4880   -4.0650 h1        1 MOL      0.108432
    177 H78         2.3830   -7.1690   -4.2120 h1        1 MOL      0.108432
    178 H79         2.8280   -5.7130   -5.1340 h1        1 MOL      0.108432
    179 H80         3.2170   -5.0550   -2.4620 hn        1 MOL      0.127913
    180 Ca1        -4.2070   -2.0640    1.4120 Ca        1 MOL      1.753150
    181 O27        -2.8960   -4.5580    1.7850 oh        1 MOL     -0.828145
    182 H81        -2.0590   -4.3600    1.3580 ho        1 MOL      0.389982
    183 H82        -2.6570   -5.0670    2.5510 ho        1 MOL      0.389982
    184 O28        -4.2850   -3.5040    4.0220 oh        1 MOL     -0.828145
    185 H83        -4.2560   -2.8860    4.7510 ho        1 MOL      0.389982
    186 H84        -3.7140   -4.2280    4.2860 ho        1 MOL      0.389982
    187 O29        -6.1530   -0.8010    2.6940 oh        1 MOL     -0.828145
    188 H85        -6.9250   -0.2650    2.5060 ho        1 MOL      0.389982
    189 H86        -6.3880   -1.2810    3.4960 ho        1 MOL      0.389982
@<TRIPOS>BOND
     1    1    2 1   
     2    1    4 1   
     3    1    5 1   
     4    1    6 1   
     5    2    3 2   
     6    2    7 1   
     7    7    8 1   
     8    7   15 1   
     9    8    9 1   
    10    8   11 1   
    11    8   16 1   
    12    9   10 2   
    13    9   19 1   
    14   11   12 1   
    15   11   17 1   
    16   11   18 1   
    17   12   13 1   
    18   12   14 1   
    19   19   20 1   
    20   19   27 1   
    21   20   21 1   
    22   20   23 1   
    23   20   28 1   
    24   21   22 2   
    25   21   38 1   
    26   23   24 1   
    27   23   25 1   
    28   23   29 1   
    29   24   26 1   
    30   24   30 1   
    31   24   31 1   
    32   25   32 1   
    33   25   33 1   
    34   25   34 1   
    35   26   35 1   
    36   26   36 1   
    37   26   37 1   
    38   38   39 1   
    39   38   46 1   
    40   39   40 1   
    41   39   42 1   
    42   39   47 1   
    43   40   41 2   
    44   40   50 1   
    45   42   43 1   
    46   42   48 1   
    47   42   49 1   
    48   43   44 1   
    49   43   45 1   
    50   50   51 1   
    51   50   54 1   
    52   51   52 1   
    53   51   55 1   
    54   51   56 1   
    55   52   53 2   
    56   52   57 1   
    57   57   58 1   
    58   57   65 1   
    59   58   59 1   
    60   58   61 1   
    61   58   66 1   
    62   59   60 2   
    63   59   69 1   
    64   61   62 1   
    65   61   67 1   
    66   61   68 1   
    67   62   63 1   
    68   62   64 1   
    69   69   70 1   
    70   69   73 1   
    71   70   71 1   
    72   70   74 1   
    73   70   75 1   
    74   71   72 2   
    75   71   76 1   
    76   76   77 1   
    77   76   85 1   
    78   77   78 1   
    79   77   80 1   
    80   77   86 1   
    81   78   79 2   
    82   78   93 1   
    83   80   81 1   
    84   80   87 1   
    85   80   88 1   
    86   81   82 1   
    87   81   89 1   
    88   81   90 1   
    89   82   83 1   
    90   82   84 2   
    91   83   91 1   
    92   83   92 1   
    93   93   94 1   
    94   93  100 1   
    95   94   95 1   
    96   94   97 1   
    97   94  101 1   
    98   95   96 2   
    99   95  109 1   
   100   97   98 1   
   101   97   99 1   
   102   97  102 1   
   103   98  103 1   
   104   98  104 1   
   105   98  105 1   
   106   99  106 1   
   107   99  107 1   
   108   99  108 1   
   109  109  110 1   
   110  109  117 1   
   111  110  111 1   
   112  110  113 1   
   113  110  118 1   
   114  111  112 2   
   115  111  123 1   
   116  113  114 1   
   117  113  119 1   
   118  113  120 1   
   119  114  115 1   
   120  114  116 2   
   121  115  121 1   
   122  115  122 1   
   123  123  124 1   
   124  123  135 1   
   125  124  125 1   
   126  124  127 1   
   127  124  136 1   
   128  125  126 2   
   129  125  144 1   
   130  127  128 1   
   131  127  137 1   
   132  127  138 1   
   133  128  129 ar  
   134  128  130 ar  
   135  129  131 ar  
   136  129  139 1   
   137  130  132 ar  
   138  130  140 1   
   139  131  133 ar  
   140  131  141 1   
   141  132  133 ar  
   142  132  142 1   
   143  133  134 1   
   144  134  143 1   
   145  144  145 1   
   146  144  153 1   
   147  145  146 1   
   148  145  148 1   
   149  145  154 1   
   150  146  147 2   
   151  146  159 1   
   152  148  149 1   
   153  148  155 1   
   154  148  156 1   
   155  149  150 1   
   156  149  157 1   
   157  149  158 1   
   158  150  151 1   
   159  150  152 1   
   160  159  160 1   
   161  159  168 1   
   162  160  161 1   
   163  160  163 1   
   164  160  169 1   
   165  161  162 2   
   166  161  174 1   
   167  163  164 1   
   168  163  170 1   
   169  163  171 1   
   170  164  165 1   
   171  164  172 1   
   172  164  173 1   
   173  165  166 1   
   174  165  167 1   
   175  174  175 1   
   176  174  179 1   
   177  175  176 1   
   178  175  177 1   
   179  175  178 1   
   180  181  182 1   
   181  181  183 1   
   182  184  185 1   
   183  184  186 1   
   184  187  188 1   
   185  187  189 1   
@<TRIPOS>SUBSTRUCTURE
     1 MOL         1 TEMP              0 ****  ****    0 ROOT
