@<TRIPOS>MOLECULE
MOL
  188   182     1     0     0
SMALL
resp


@<TRIPOS>ATOM
      1 C1          4.1440    0.1750    3.8060 c3        1 MOL     -0.455940
      2 C2          5.0430    0.4280    2.6490 c         1 MOL      0.622912
      3 O1          4.5830    0.4520    1.5030 o         1 MOL     -0.551180
      4 H1          3.3280    0.8970    3.7960 hc        1 MOL      0.115908
      5 H2          3.7370   -0.8340    3.7370 hc        1 MOL      0.115908
      6 H3          4.7080    0.2770    4.7340 hc        1 MOL      0.115908
      7 N1          6.3300    0.6670    2.9010 n         1 MOL     -0.480169
      8 C3          7.4500    0.9040    1.9360 c3        1 MOL      0.101764
      9 C4          7.6590   -0.2060    0.7880 c         1 MOL      0.248193
     10 O2          8.3110    0.0500   -0.2120 o         1 MOL     -0.448392
     11 C5          7.4680    2.3610    1.4780 c3        1 MOL     -0.280905
     12 C6          8.8650    2.9240    1.1950 c         1 MOL      0.726362
     13 O3          9.0840    3.6290    0.2160 o         1 MOL     -0.669388
     14 O4          9.7990    2.7070    2.0280 o         1 MOL     -0.669388
     15 H4          6.5360    0.7310    3.8840 hn        1 MOL      0.312686
     16 H5          8.3380    0.7090    2.5330 h1        1 MOL      0.018365
     17 H6          7.1590    2.9330    2.3450 hc        1 MOL      0.116481
     18 H7          6.7970    2.6240    0.6550 hc        1 MOL      0.116481
     19 N2          7.0260   -1.3690    0.9450 n         1 MOL     -0.073895
     20 C7          7.1170   -2.5750    0.0370 c3        1 MOL      0.106632
     21 C8          5.7570   -3.1110   -0.3770 c         1 MOL      0.568808
     22 O5          5.5930   -4.2850   -0.5900 o         1 MOL     -0.626978
     23 C9          8.0920   -3.6220    0.7280 c3        1 MOL     -0.096983
     24 C10         9.5590   -3.2220    1.0770 c3        1 MOL      0.085359
     25 C11        10.4840   -4.3530    1.3740 c3        1 MOL     -0.048740
     26 C12        11.9350   -3.9610    1.5620 c3        1 MOL     -0.030082
     27 N3         12.5750   -3.4300    0.3290 n4        1 MOL     -0.189986
     28 H8          6.5500   -1.4500    1.8270 hn        1 MOL      0.116092
     29 H9          7.5710   -2.2010   -0.8700 h1        1 MOL      0.031826
     30 H10         8.0370   -4.5130    0.1080 hc        1 MOL      0.008634
     31 H11         7.5900   -3.9590    1.6360 hc        1 MOL      0.008634
     32 H12         9.4500   -2.6290    1.9850 hc        1 MOL      0.014628
     33 H13         9.8840   -2.5640    0.2670 hc        1 MOL      0.014628
     34 H14        10.4160   -5.0900    0.5590 hc        1 MOL      0.044587
     35 H15        10.2580   -4.7890    2.3460 hc        1 MOL      0.044587
     36 H16        12.4600   -4.8510    1.9360 hx        1 MOL      0.086836
     37 H17        11.9660   -3.1640    2.3070 hx        1 MOL      0.086836
     38 H18        12.1160   -2.5850    0.0110 hn        1 MOL      0.248813
     39 H19        13.5410   -3.2530    0.5530 hn        1 MOL      0.248813
     40 H20        12.6960   -4.0960   -0.4280 hn        1 MOL      0.248813
     41 N4          4.8130   -2.2790   -0.4560 n         1 MOL     -0.345545
     42 C13         3.3750   -2.4790   -0.6380 c3        1 MOL      0.035165
     43 C14         2.9390   -1.9680   -2.0010 c         1 MOL      0.402427
     44 O6          3.1830   -0.7500   -2.1800 o         1 MOL     -0.447622
     45 C15         2.6940   -1.8510    0.5580 c3        1 MOL     -0.309449
     46 C16         1.2360   -2.3350    0.5640 c         1 MOL      0.737452
     47 O7          0.6220   -2.3850    1.6380 o         1 MOL     -0.712720
     48 O8          0.6240   -2.5630   -0.5150 o         1 MOL     -0.712720
     49 H21         5.1060   -1.3410   -0.2250 hn        1 MOL      0.224034
     50 H22         3.1140   -3.5380   -0.5960 h1        1 MOL      0.035545
     51 H23         2.5540   -0.7760    0.4260 hc        1 MOL      0.150951
     52 H24         3.2710   -2.0680    1.4600 hc        1 MOL      0.150951
     53 N5          2.2180   -2.8340   -2.7620 n         1 MOL     -0.406824
     54 C17         1.6780   -2.5640   -4.0950 c3        1 MOL     -0.126620
     55 C18         0.5920   -1.4390   -4.0660 c         1 MOL      0.445809
     56 O9          0.3890   -0.7860   -5.0920 o         1 MOL     -0.565366
     57 H25         2.0780   -3.7540   -2.3710 hn        1 MOL      0.327731
     58 H26         1.2730   -3.4270   -4.6240 h1        1 MOL      0.101306
     59 H27         2.4860   -2.1750   -4.7200 h1        1 MOL      0.101306
     60 N6         -0.0520   -1.1440   -2.9310 n         1 MOL     -0.122141
     61 C19        -1.0600   -0.0340   -2.8880 c3        1 MOL     -0.080839
     62 C20        -0.4370    1.3980   -3.1210 c         1 MOL      0.321981
     63 O10        -1.1590    2.3980   -3.2460 o         1 MOL     -0.432487
     64 C21        -1.8600   -0.0570   -1.5920 c3        1 MOL     -0.467109
     65 C22        -2.6920   -1.3030   -1.3770 c         1 MOL      0.932878
     66 N7         -3.8290   -1.2350   -0.7890 n         1 MOL     -0.831341
     67 O11        -2.3150   -2.4580   -1.7050 o         1 MOL     -0.792743
     68 H28         0.2510   -1.5100   -2.0400 hn        1 MOL      0.274146
     69 H29        -1.8040   -0.1720   -3.6800 h1        1 MOL      0.130443
     70 H30        -2.3900    0.8790   -1.3720 hc        1 MOL      0.153896
     71 H31        -1.1140   -0.1020   -0.7960 hc        1 MOL      0.153896
     72 H32        -4.1300   -0.3930   -0.3290 hn        1 MOL      0.401301
     73 H33        -4.1960   -2.1410   -0.5260 hn        1 MOL      0.401301
     74 N8          0.9100    1.4760   -3.1340 n         1 MOL     -0.022916
     75 C23         1.6310    2.7110   -3.2970 c3        1 MOL     -0.225496
     76 C24         1.3840    3.6870   -2.1090 c         1 MOL      0.512295
     77 O12         1.3060    4.8910   -2.3700 o         1 MOL     -0.527115
     78 H34         1.4430    0.6220   -3.0620 hn        1 MOL      0.142264
     79 H35         1.3780    3.2000   -4.2410 h1        1 MOL      0.120914
     80 H36         2.6420    2.3100   -3.2440 h1        1 MOL      0.120914
     81 N9          1.3480    3.2340   -0.8800 n         1 MOL     -0.204389
     82 C25         0.8160    3.9520    0.2840 c3        1 MOL      0.171724
     83 C26        -0.1910    3.0120    0.9100 c         1 MOL      0.172532
     84 O13        -0.0590    1.7810    0.8510 o         1 MOL     -0.410067
     85 C27         1.9720    4.3610    1.2140 c3        1 MOL      0.005900
     86 C28         3.0620    5.1120    0.6350 ca        1 MOL     -0.032083
     87 C29         4.3080    4.5240    0.3860 ca        1 MOL     -0.177276
     88 C30         2.7770    6.4610    0.2710 ca        1 MOL     -0.177276
     89 C31         5.3560    5.3810   -0.1010 ca        1 MOL     -0.181137
     90 C32         3.7750    7.2430   -0.1660 ca        1 MOL     -0.181137
     91 C33         5.0530    6.7370   -0.3900 ca        1 MOL      0.286012
     92 O14         5.9750    7.4940   -0.9430 oh        1 MOL     -0.430108
     93 H37         1.6890    2.2930   -0.7550 hn        1 MOL      0.173233
     94 H38         0.1990    4.7830   -0.0670 h1        1 MOL      0.018798
     95 H39         2.2720    3.5430    1.8700 hc        1 MOL      0.028708
     96 H40         1.5250    5.0200    1.9650 hc        1 MOL      0.028708
     97 H41         4.4620    3.4660    0.5240 ha        1 MOL      0.118045
     98 H42         1.7920    6.8770    0.4540 ha        1 MOL      0.118045
     99 H43         6.3790    5.1150   -0.3190 ha        1 MOL      0.114817
    100 H44         3.6160    8.3070   -0.2620 ha        1 MOL      0.114817
    101 H45         5.7390    8.4270   -0.9450 ho        1 MOL      0.340914
    102 N10        -1.2670    3.5950    1.4510 n         1 MOL     -0.171171
    103 C34        -2.5180    2.9500    1.8730 c3        1 MOL      0.102731
    104 C35        -3.4080    2.6360    0.6660 c         1 MOL      0.410467
    105 O15        -4.0290    1.5840    0.5880 o         1 MOL     -0.585877
    106 C36        -3.2550    3.8140    2.9510 c3        1 MOL      0.026771
    107 C37        -2.4850    3.9100    4.2680 c3        1 MOL      0.256761
    108 C38        -4.6690    3.2650    3.3030 c3        1 MOL     -0.361983
    109 C39        -2.1880    2.5680    5.0250 c3        1 MOL     -0.409241
    110 H46        -1.2630    4.6030    1.5440 hn        1 MOL      0.194839
    111 H47        -2.1890    2.0110    2.3170 h1        1 MOL      0.078721
    112 H48        -3.3710    4.8450    2.6100 hc        1 MOL     -0.022616
    113 H49        -3.0650    4.5690    4.9210 hc        1 MOL     -0.061899
    114 H50        -1.4910    4.3280    4.0960 hc        1 MOL     -0.061899
    115 H51        -4.6070    2.2460    3.6930 hc        1 MOL      0.103780
    116 H52        -5.1370    3.8170    4.1270 hc        1 MOL      0.103780
    117 H53        -5.3180    3.3720    2.4370 hc        1 MOL      0.103780
    118 H54        -1.7560    2.9550    5.9520 hc        1 MOL      0.115552
    119 H55        -3.1610    2.1210    5.2250 hc        1 MOL      0.115552
    120 H56        -1.5630    1.8930    4.4340 hc        1 MOL      0.115552
    121 N11        -3.4710    3.5110   -0.3670 n         1 MOL     -0.455791
    122 C40        -4.1000    3.2740   -1.6410 c3        1 MOL     -0.040243
    123 C41        -5.6330    3.2230   -1.5390 c         1 MOL      0.385134
    124 O16        -6.2700    2.8700   -2.6020 o         1 MOL     -0.480278
    125 C42        -3.8560    4.4750   -2.5260 c3        1 MOL      0.331896
    126 O17        -2.4570    4.6780   -2.8560 oh        1 MOL     -0.592538
    127 H57        -3.0790    4.4070   -0.1110 hn        1 MOL      0.287785
    128 H58        -3.6460    2.4100   -2.1320 h1        1 MOL      0.094665
    129 H59        -4.1620    5.4270   -2.1030 h1        1 MOL      0.005480
    130 H60        -4.4030    4.3070   -3.4590 h1        1 MOL      0.005480
    131 H61        -2.1540    3.7970   -3.1010 ho        1 MOL      0.346066
    132 N12        -6.2960    3.6130   -0.4120 n         1 MOL     -0.375449
    133 C43        -7.7370    3.5480   -0.1470 c3        1 MOL      0.250315
    134 C44        -8.3250    2.1520   -0.5180 c         1 MOL      0.459121
    135 O18        -9.5050    1.9870   -0.9390 o         1 MOL     -0.544777
    136 C45        -8.4290    4.7170   -0.7630 c3        1 MOL     -0.389151
    137 H62        -5.7520    4.0930    0.2870 hn        1 MOL      0.265048
    138 H63        -7.9440    3.5890    0.9270 h1        1 MOL      0.045855
    139 H64        -7.9060    5.6190   -0.4500 hc        1 MOL      0.106137
    140 H65        -8.3260    4.7400   -1.8500 hc        1 MOL      0.106137
    141 H66        -9.4340    4.7510   -0.3550 hc        1 MOL      0.106137
    142 N13        -7.5820    1.1230   -0.2320 n         1 MOL     -0.507742
    143 C46        -7.9030   -0.3380   -0.4580 c3        1 MOL      0.476904
    144 C47        -7.3020   -1.1700    0.6910 c         1 MOL      0.170762
    145 O19        -6.3890   -0.6750    1.4060 o         1 MOL     -0.405920
    146 C48        -7.3960   -0.8280   -1.8180 c3        1 MOL     -0.107328
    147 H67        -6.6980    1.3290    0.1980 hn        1 MOL      0.248518
    148 H68        -8.9800   -0.5110   -0.5090 h1        1 MOL     -0.029695
    149 H69        -6.3110   -0.9400   -1.8640 hc        1 MOL      0.030357
    150 H70        -7.7230   -1.8570   -1.9690 hc        1 MOL      0.030357
    151 H71        -7.8010   -0.3160   -2.6960 hc        1 MOL      0.030357
    152 N14        -7.7040   -2.4570    0.8800 n         1 MOL     -0.221918
    153 C49        -7.3550   -3.3690    2.0100 c3        1 MOL     -0.121184
    154 C50        -7.6300   -2.8020    3.4190 c         1 MOL      0.457306
    155 O20        -6.9970   -3.2230    4.4170 o         1 MOL     -0.518847
    156 C51        -6.0240   -4.1120    1.7030 c3        1 MOL      0.146825
    157 C52        -6.0740   -5.0080    0.4760 c3        1 MOL     -0.153336
    158 C53        -4.6240   -5.2850    0.0230 c         1 MOL      0.670836
    159 O21        -4.0410   -4.5190   -0.7800 o         1 MOL     -0.737130
    160 O22        -3.9470   -6.1720    0.5970 o         1 MOL     -0.737130
    161 H72        -8.5300   -2.7840    0.4050 hn        1 MOL      0.225548
    162 H73        -8.0220   -4.2130    1.8760 h1        1 MOL      0.065844
    163 H74        -5.8240   -4.7830    2.5390 hc        1 MOL      0.011642
    164 H75        -5.2380   -3.3650    1.5560 hc        1 MOL      0.011642
    165 H76        -6.6390   -4.5270   -0.3250 hc        1 MOL      0.023537
    166 H77        -6.5010   -5.9880    0.6920 hc        1 MOL      0.023537
    167 N15        -8.5600   -1.8900    3.5790 n         1 MOL     -0.320013
    168 C54        -8.9570   -1.2680    4.9300 c3        1 MOL     -0.004154
    169 H78       -10.0330   -1.3670    5.0720 h1        1 MOL      0.062328
    170 H79        -8.4360   -1.7850    5.7360 h1        1 MOL      0.062328
    171 H80        -8.6850   -0.2130    4.9380 h1        1 MOL      0.062328
    172 H81        -9.0230   -1.5380    2.7550 hn        1 MOL      0.223439
    173 Ca1        -1.3280   -4.6250   -0.8560 Ca        1 MOL      1.829525
    174 O23        -1.6480   -6.9710   -1.8620 oh        1 MOL     -0.888144
    175 H82        -1.0160   -7.3600   -2.4550 ho        1 MOL      0.436847
    176 H83        -2.0650   -7.7110   -1.4270 ho        1 MOL      0.436847
    177 O24        -0.6670   -4.2920   -3.4200 oh        1 MOL     -0.888144
    178 H84        -0.2760   -4.8850   -4.0650 ho        1 MOL      0.436847
    179 H85        -1.2930   -3.7630   -3.9240 ho        1 MOL      0.436847
    180 O25        -0.7350   -6.2410    1.1480 oh        1 MOL     -0.888144
    181 H86        -1.4600   -6.1830    1.7670 ho        1 MOL      0.436847
    182 H87        -0.2620   -7.0300    1.4070 ho        1 MOL      0.436847
    183 O26         1.2970   -5.3910   -1.1930 oh        1 MOL     -0.888144
    184 H88         1.8270   -5.8840   -1.8070 ho        1 MOL      0.436847
    185 H89         1.7330   -5.5000   -0.3440 ho        1 MOL      0.436847
    186 O27        -1.9450   -3.3180    1.2440 oh        1 MOL     -0.888144
    187 H90        -2.6670   -3.0810    1.8350 ho        1 MOL      0.436847
    188 H91        -1.2820   -2.6450    1.3820 ho        1 MOL      0.436847
@<TRIPOS>BOND
     1    1    2 1   
     2    1    4 1   
     3    1    5 1   
     4    1    6 1   
     5    2    3 2   
     6    2    7 1   
     7    7    8 1   
     8    7   15 1   
     9    8    9 1   
    10    8   11 1   
    11    8   16 1   
    12    9   10 2   
    13    9   19 1   
    14   11   12 1   
    15   11   17 1   
    16   11   18 1   
    17   12   13 1   
    18   12   14 1   
    19   19   20 1   
    20   19   28 1   
    21   20   21 1   
    22   20   23 1   
    23   20   29 1   
    24   21   22 2   
    25   21   41 1   
    26   23   24 1   
    27   23   30 1   
    28   23   31 1   
    29   24   25 1   
    30   24   32 1   
    31   24   33 1   
    32   25   26 1   
    33   25   34 1   
    34   25   35 1   
    35   26   27 1   
    36   26   36 1   
    37   26   37 1   
    38   27   38 1   
    39   27   39 1   
    40   27   40 1   
    41   41   42 1   
    42   41   49 1   
    43   42   43 1   
    44   42   45 1   
    45   42   50 1   
    46   43   44 2   
    47   43   53 1   
    48   45   46 1   
    49   45   51 1   
    50   45   52 1   
    51   46   47 1   
    52   46   48 1   
    53   53   54 1   
    54   53   57 1   
    55   54   55 1   
    56   54   58 1   
    57   54   59 1   
    58   55   56 2   
    59   55   60 1   
    60   60   61 1   
    61   60   68 1   
    62   61   62 1   
    63   61   64 1   
    64   61   69 1   
    65   62   63 2   
    66   62   74 1   
    67   64   65 1   
    68   64   70 1   
    69   64   71 1   
    70   65   66 1   
    71   65   67 2   
    72   66   72 1   
    73   66   73 1   
    74   74   75 1   
    75   74   78 1   
    76   75   76 1   
    77   75   79 1   
    78   75   80 1   
    79   76   77 2   
    80   76   81 1   
    81   81   82 1   
    82   81   93 1   
    83   82   83 1   
    84   82   85 1   
    85   82   94 1   
    86   83   84 2   
    87   83  102 1   
    88   85   86 1   
    89   85   95 1   
    90   85   96 1   
    91   86   87 ar  
    92   86   88 ar  
    93   87   89 ar  
    94   87   97 1   
    95   88   90 ar  
    96   88   98 1   
    97   89   91 ar  
    98   89   99 1   
    99   90   91 ar  
   100   90  100 1   
   101   91   92 1   
   102   92  101 1   
   103  102  103 1   
   104  102  110 1   
   105  103  104 1   
   106  103  106 1   
   107  103  111 1   
   108  104  105 2   
   109  104  121 1   
   110  106  107 1   
   111  106  108 1   
   112  106  112 1   
   113  107  109 1   
   114  107  113 1   
   115  107  114 1   
   116  108  115 1   
   117  108  116 1   
   118  108  117 1   
   119  109  118 1   
   120  109  119 1   
   121  109  120 1   
   122  121  122 1   
   123  121  127 1   
   124  122  123 1   
   125  122  125 1   
   126  122  128 1   
   127  123  124 2   
   128  123  132 1   
   129  125  126 1   
   130  125  129 1   
   131  125  130 1   
   132  126  131 1   
   133  132  133 1   
   134  132  137 1   
   135  133  134 1   
   136  133  136 1   
   137  133  138 1   
   138  134  135 2   
   139  134  142 1   
   140  136  139 1   
   141  136  140 1   
   142  136  141 1   
   143  142  143 1   
   144  142  147 1   
   145  143  144 1   
   146  143  146 1   
   147  143  148 1   
   148  144  145 2   
   149  144  152 1   
   150  146  149 1   
   151  146  150 1   
   152  146  151 1   
   153  152  153 1   
   154  152  161 1   
   155  153  154 1   
   156  153  156 1   
   157  153  162 1   
   158  154  155 2   
   159  154  167 1   
   160  156  157 1   
   161  156  163 1   
   162  156  164 1   
   163  157  158 1   
   164  157  165 1   
   165  157  166 1   
   166  158  159 1   
   167  158  160 1   
   168  167  168 1   
   169  167  172 1   
   170  168  169 1   
   171  168  170 1   
   172  168  171 1   
   173  174  175 1   
   174  174  176 1   
   175  177  178 1   
   176  177  179 1   
   177  180  181 1   
   178  180  182 1   
   179  183  184 1   
   180  183  185 1   
   181  186  187 1   
   182  186  188 1   
@<TRIPOS>SUBSTRUCTURE
     1 MOL         1 TEMP              0 ****  ****    0 ROOT
