@<TRIPOS>MOLECULE
MOL
  189   185     1     0     0
SMALL
resp


@<TRIPOS>ATOM
      1 C1          4.3470    3.7530   -4.0930 c3        1 MOL     -0.420452
      2 C2          5.0330    3.0150   -2.9490 c         1 MOL      0.848959
      3 O1          4.5920    2.8970   -1.7820 o         1 MOL     -0.616793
      4 H1          3.2700    3.5920   -4.0360 hc        1 MOL      0.105176
      5 H2          4.5580    4.8200   -4.0170 hc        1 MOL      0.105176
      6 H3          4.7200    3.3760   -5.0460 hc        1 MOL      0.105176
      7 N1          6.1570    2.3680   -3.3870 n         1 MOL     -0.810720
      8 C3          6.8700    1.2960   -2.6650 c3        1 MOL      0.425626
      9 C4          5.9490    0.1680   -2.1710 c         1 MOL      0.130093
     10 O2          5.5590    0.0840   -0.9640 o         1 MOL     -0.510875
     11 C5          7.8950    1.8290   -1.6080 c3        1 MOL     -0.180821
     12 C6          7.5050    2.9240   -0.6860 c         1 MOL      0.906606
     13 O3          6.7300    2.6500    0.2090 o         1 MOL     -0.787080
     14 O4          8.0110    4.0560   -0.8260 o         1 MOL     -0.787080
     15 H4          6.4040    2.5040   -4.3600 hn        1 MOL      0.349092
     16 H5          7.6050    0.7660   -3.2720 h1        1 MOL      0.003141
     17 H6          8.8130    2.1250   -2.1220 hc        1 MOL      0.003343
     18 H7          8.0370    0.9910   -0.9320 hc        1 MOL      0.003343
     19 N2          5.5340   -0.7170   -3.0560 n         1 MOL     -0.205972
     20 C7          4.7930   -1.9760   -2.8490 c3        1 MOL     -0.085589
     21 C8          5.6060   -2.9480   -1.9530 c         1 MOL      0.397505
     22 O5          5.6780   -4.1530   -2.2470 o         1 MOL     -0.543301
     23 C9          3.3340   -1.7620   -2.3200 c3        1 MOL      0.395725
     24 C10         2.5700   -3.0540   -2.2990 c3        1 MOL      0.038768
     25 C11         2.5130   -0.8290   -3.2580 c3        1 MOL     -0.450727
     26 C12         2.5110   -3.9230   -3.5440 c3        1 MOL     -0.246322
     27 H8          5.8210   -0.5360   -4.0050 hn        1 MOL      0.217922
     28 H9          4.7120   -2.3500   -3.8680 h1        1 MOL      0.078873
     29 H10         3.3250   -1.3460   -1.3150 hc        1 MOL     -0.240664
     30 H11         1.5840   -2.8630   -1.8660 hc        1 MOL      0.034630
     31 H12         3.0790   -3.6630   -1.5480 hc        1 MOL      0.034630
     32 H13         2.8620    0.1980   -3.1610 hc        1 MOL      0.094446
     33 H14         2.5320   -1.0750   -4.3180 hc        1 MOL      0.094446
     34 H15         1.4510   -0.7500   -3.0130 hc        1 MOL      0.094446
     35 H16         2.5300   -3.2900   -4.4260 hc        1 MOL      0.045865
     36 H17         3.3850   -4.5690   -3.6120 hc        1 MOL      0.045865
     37 H18         1.6210   -4.5620   -3.5870 hc        1 MOL      0.045865
     38 N3          6.1830   -2.5060   -0.8310 n         1 MOL     -0.194852
     39 C13         6.9390   -3.3320    0.1360 c3        1 MOL     -0.062621
     40 C14         6.2880   -4.5140    0.8330 c         1 MOL      0.644070
     41 O6          6.9230   -5.5440    0.9390 o         1 MOL     -0.599187
     42 C15         7.5920   -2.5080    1.2850 c3        1 MOL     -0.166302
     43 C16         8.2600   -1.3070    0.7490 c         1 MOL      0.771908
     44 O7          8.1960   -0.2790    1.4310 o         1 MOL     -0.718081
     45 O8          8.8770   -1.3450   -0.3830 o         1 MOL     -0.718081
     46 H19         6.2380   -1.5230   -0.6350 hn        1 MOL      0.302622
     47 H20         7.7340   -3.7640   -0.4730 h1        1 MOL      0.061943
     48 H21         8.4240   -3.1240    1.6190 hc        1 MOL      0.055203
     49 H22         6.8440   -2.3800    2.0710 hc        1 MOL      0.055203
     50 N4          5.0870   -4.4800    1.4240 n         1 MOL     -0.628987
     51 C17         4.1700   -3.3080    1.6270 c3        1 MOL      0.219986
     52 C18         4.2630   -2.9440    3.1020 c         1 MOL      0.382866
     53 O9          5.2030   -3.0880    3.8710 o         1 MOL     -0.528515
     54 H23         4.7730   -5.3360    1.8480 hn        1 MOL      0.322583
     55 H24         3.1200   -3.4380    1.3540 h1        1 MOL      0.021191
     56 H25         4.5680   -2.4080    1.1510 h1        1 MOL      0.021191
     57 N5          3.2470   -2.2930    3.6890 n         1 MOL     -0.289932
     58 C19         1.9720   -1.7630    3.1650 c3        1 MOL     -0.010186
     59 C20         2.1820   -0.7710    1.9640 c         1 MOL      0.430877
     60 O10         3.2400   -0.1790    1.8360 o         1 MOL     -0.515699
     61 C21         1.2210   -0.9770    4.3010 c3        1 MOL     -0.164242
     62 C22         2.0970   -0.0030    5.0340 c         1 MOL      0.734922
     63 O11         2.8010   -0.5020    5.9640 o         1 MOL     -0.696318
     64 O12         2.0750    1.2380    4.7960 o         1 MOL     -0.696318
     65 H26         3.2650   -2.2490    4.6900 hn        1 MOL      0.239880
     66 H27         1.4020   -2.6700    2.9420 h1        1 MOL      0.050770
     67 H28         0.7540   -1.7260    4.9490 hc        1 MOL      0.031411
     68 H29         0.3830   -0.3950    3.9090 hc        1 MOL      0.031411
     69 N6          1.2080   -0.6280    1.0400 n         1 MOL     -0.221556
     70 C23        -0.1860   -1.1260    1.1290 c3        1 MOL     -0.257429
     71 C24        -0.4750   -2.5880    0.7930 c         1 MOL      0.584218
     72 O13         0.4410   -3.3720    0.4220 o         1 MOL     -0.518186
     73 H30         1.5270   -0.1830    0.2030 hn        1 MOL      0.280951
     74 H31        -0.7320   -0.5580    0.3820 h1        1 MOL      0.130334
     75 H32        -0.6140   -0.9000    2.1070 h1        1 MOL      0.130334
     76 N7         -1.7830   -2.9750    0.8390 n         1 MOL     -0.488568
     77 C25        -2.1720   -4.2670    0.2260 c3        1 MOL      0.114389
     78 C26        -2.8510   -4.2060   -1.1570 c         1 MOL      0.371044
     79 O14        -2.8840   -5.1700   -1.8570 o         1 MOL     -0.497673
     80 C27        -2.9090   -5.1300    1.2740 c3        1 MOL     -0.070241
     81 C28        -4.1250   -4.4970    1.9830 c3        1 MOL     -0.232183
     82 C29        -5.1840   -3.9550    0.9970 c         1 MOL      0.425740
     83 N8         -6.0450   -4.8380    0.4980 n         1 MOL     -0.595576
     84 O15        -5.2630   -2.7800    0.6620 o         1 MOL     -0.455869
     85 H33        -2.4030   -2.2010    1.0270 hn        1 MOL      0.305374
     86 H34        -1.3280   -4.9320    0.0700 h1        1 MOL      0.105695
     87 H35        -2.1830   -5.2840    2.0780 hc        1 MOL      0.048256
     88 H36        -3.2410   -6.1010    0.9200 hc        1 MOL      0.048256
     89 H37        -3.7690   -3.6740    2.5950 hc        1 MOL      0.092770
     90 H38        -4.6060   -5.2030    2.6530 hc        1 MOL      0.092770
     91 H39        -6.1060   -5.7990    0.8260 hn        1 MOL      0.313418
     92 H40        -6.7920   -4.4300   -0.0350 hn        1 MOL      0.313418
     93 N9         -3.3940   -3.0380   -1.5580 n         1 MOL     -0.240772
     94 C30        -3.7550   -2.7130   -2.9400 c3        1 MOL     -0.110384
     95 C31        -5.1670   -2.1630   -3.0660 c         1 MOL      0.420362
     96 O16        -5.6190   -2.0270   -4.2230 o         1 MOL     -0.564752
     97 C32        -2.6350   -1.8310   -3.6140 c3        1 MOL      0.061474
     98 C33        -1.2450   -2.4370   -3.5770 c3        1 MOL     -0.073021
     99 C34        -2.7070   -0.4160   -3.0630 c3        1 MOL     -0.073021
    100 H41        -3.3290   -2.1630   -1.0530 hn        1 MOL      0.157317
    101 H42        -3.8010   -3.6770   -3.4660 h1        1 MOL      0.118572
    102 H43        -2.9380   -1.7700   -4.6610 hc        1 MOL      0.028313
    103 H44        -0.5430   -1.9840   -4.2760 hc        1 MOL      0.021060
    104 H45        -0.7600   -2.2310   -2.6330 hc        1 MOL      0.021060
    105 H46        -1.2490   -3.5030   -3.8120 hc        1 MOL      0.021060
    106 H47        -2.0070    0.2440   -3.5780 hc        1 MOL      0.021060
    107 H48        -3.6270    0.1710   -3.0880 hc        1 MOL      0.021060
    108 H49        -2.3490   -0.4140   -2.0330 hc        1 MOL      0.021060
    109 N10        -5.7380   -1.6160   -2.0140 n         1 MOL     -0.093852
    110 C35        -7.0310   -0.9270   -2.1550 c3        1 MOL      0.024306
    111 C36        -7.0650    0.5550   -1.7800 c         1 MOL      0.493871
    112 O17        -7.9980    1.3230   -2.0840 o         1 MOL     -0.554624
    113 C37        -8.0570   -1.7830   -1.4010 c3        1 MOL     -0.148613
    114 C38        -8.3020   -3.1620   -1.8290 c         1 MOL      0.666140
    115 N11        -8.5810   -3.5100   -3.0600 n         1 MOL     -0.782462
    116 O18        -8.2090   -4.0570   -1.0510 o         1 MOL     -0.569186
    117 H50        -5.3730   -1.7500   -1.0890 hn        1 MOL      0.205345
    118 H51        -7.3870   -0.9070   -3.1830 h1        1 MOL      0.045747
    119 H52        -9.0130   -1.2700   -1.4300 hc        1 MOL      0.020716
    120 H53        -7.7750   -1.7810   -0.3490 hc        1 MOL      0.020716
    121 H54        -8.7960   -2.7870   -3.7370 hn        1 MOL      0.367715
    122 H55        -8.6890   -4.4960   -3.2580 hn        1 MOL      0.367715
    123 N12        -6.0810    1.0930   -1.0600 n         1 MOL     -0.419980
    124 C39        -6.1340    2.4400   -0.5420 c3        1 MOL      0.185008
    125 C40        -4.7540    3.0380   -0.1140 c         1 MOL      0.321921
    126 O19        -3.7450    2.3060   -0.1490 o         1 MOL     -0.454309
    127 C41        -7.0140    2.3310    0.8150 c3        1 MOL     -0.245864
    128 C42        -6.7850    1.0120    1.6270 ca        1 MOL      0.336625
    129 C43        -7.8530    0.0940    1.6960 ca        1 MOL     -0.384095
    130 C44        -5.5800    0.7940    2.3070 ca        1 MOL     -0.384095
    131 C45        -7.6230   -1.1910    2.3210 ca        1 MOL     -0.076497
    132 C46        -5.4170   -0.4150    3.0170 ca        1 MOL     -0.076497
    133 C47        -6.3790   -1.4460    2.9540 ca        1 MOL      0.161183
    134 O20        -6.1890   -2.6370    3.5930 oh        1 MOL     -0.419143
    135 H56        -5.3380    0.5020   -0.7160 hn        1 MOL      0.281814
    136 H57        -6.6870    3.1470   -1.1710 h1        1 MOL      0.060056
    137 H58        -8.0720    2.3590    0.5490 hc        1 MOL      0.075981
    138 H59        -6.8500    3.1400    1.5270 hc        1 MOL      0.075981
    139 H60        -8.7770    0.2520    1.1620 ha        1 MOL      0.172168
    140 H61        -4.7690    1.5060    2.2570 ha        1 MOL      0.172168
    141 H62        -8.3600   -1.9730    2.4280 ha        1 MOL      0.130349
    142 H63        -4.4380   -0.5410    3.4390 ha        1 MOL      0.130349
    143 H64        -6.9990   -3.1480    3.6180 ho        1 MOL      0.306885
    144 N13        -4.7960    4.3180    0.3230 n         1 MOL     -0.469919
    145 C48        -3.7180    4.9040    1.0680 c3        1 MOL      0.033523
    146 C49        -2.3570    5.0390    0.3800 c         1 MOL      0.196499
    147 O21        -1.5870    5.9490    0.7000 o         1 MOL     -0.516745
    148 C50        -3.4650    4.2310    2.4190 c3        1 MOL     -0.093001
    149 C51        -4.4800    4.5970    3.5300 c3        1 MOL      0.015682
    150 C52        -3.9760    4.2090    4.9110 c         1 MOL      0.534105
    151 O22        -4.2100    3.1010    5.4130 o         1 MOL     -0.675329
    152 O23        -3.1180    4.9440    5.4750 o         1 MOL     -0.675329
    153 H65        -5.6470    4.8680    0.2920 hn        1 MOL      0.310818
    154 H66        -3.9990    5.9390    1.2770 h1        1 MOL      0.100961
    155 H67        -2.4540    4.4960    2.7410 hc        1 MOL      0.134485
    156 H68        -3.4850    3.1600    2.2290 hc        1 MOL      0.134485
    157 H69        -5.4690    4.1620    3.4050 hc        1 MOL     -0.049597
    158 H70        -4.6250    5.6780    3.5870 hc        1 MOL     -0.049597
    159 N14        -2.0140    4.3040   -0.6220 n         1 MOL     -0.025368
    160 C53        -0.7710    4.5150   -1.5100 c3        1 MOL     -0.109151
    161 C54        -1.1450    5.3260   -2.7820 c         1 MOL      0.462647
    162 O24        -0.2300    5.6620   -3.5070 o         1 MOL     -0.521319
    163 C55        -0.4360    3.0950   -2.0320 c3        1 MOL     -0.151055
    164 C56        -0.1610    2.0680   -0.9120 c3        1 MOL      0.546960
    165 C57         1.2530    2.3320   -0.3580 c         1 MOL      0.271525
    166 O25         1.3910    3.4620    0.1420 o         1 MOL     -0.519495
    167 O26         2.1280    1.4440   -0.4380 o         1 MOL     -0.519495
    168 H71        -2.5850    3.4950   -0.7990 hn        1 MOL      0.163924
    169 H72        -0.0170    4.9870   -0.8800 h1        1 MOL      0.170026
    170 H73         0.4850    3.1800   -2.6000 hc        1 MOL      0.020566
    171 H74        -1.2470    2.6510   -2.6270 hc        1 MOL      0.020566
    172 H75        -0.1710    1.0750   -1.3630 hc        1 MOL     -0.181245
    173 H76        -0.9110    2.0680   -0.1160 hc        1 MOL     -0.181245
    174 N15        -2.4020    5.6710   -3.0340 n         1 MOL     -0.188592
    175 C58        -2.8170    6.5430   -4.1050 c3        1 MOL     -0.276377
    176 H77        -3.9050    6.5470   -4.1690 h1        1 MOL      0.102128
    177 H78        -2.4620    7.5540   -3.9090 h1        1 MOL      0.102128
    178 H79        -2.4000    6.1870   -5.0470 h1        1 MOL      0.102128
    179 H80        -3.1480    5.2500   -2.5040 hn        1 MOL      0.182319
    180 Ca1         4.3940    1.8430    0.6150 Ca        1 MOL      1.800082
    181 O27         4.2010    4.4300    1.0370 oh        1 MOL     -0.926104
    182 H81         3.8740    4.7910    1.8560 ho        1 MOL      0.430816
    183 H82         4.2090    5.1630    0.4320 ho        1 MOL      0.430816
    184 O28         6.1230    0.9370    2.4430 oh        1 MOL     -0.926104
    185 H83         6.1120    0.7260    3.3740 ho        1 MOL      0.430816
    186 H84         6.9840    0.6470    2.1410 ho        1 MOL      0.430816
    187 O29         3.3920    2.5680    3.0500 oh        1 MOL     -0.926104
    188 H85         3.2600    2.0040    3.8140 ho        1 MOL      0.430816
    189 H86         3.3630    3.4630    3.3930 ho        1 MOL      0.430816
@<TRIPOS>BOND
     1    1    2 1   
     2    1    4 1   
     3    1    5 1   
     4    1    6 1   
     5    2    3 2   
     6    2    7 1   
     7    7    8 1   
     8    7   15 1   
     9    8    9 1   
    10    8   11 1   
    11    8   16 1   
    12    9   10 2   
    13    9   19 1   
    14   11   12 1   
    15   11   17 1   
    16   11   18 1   
    17   12   13 1   
    18   12   14 1   
    19   19   20 1   
    20   19   27 1   
    21   20   21 1   
    22   20   23 1   
    23   20   28 1   
    24   21   22 2   
    25   21   38 1   
    26   23   24 1   
    27   23   25 1   
    28   23   29 1   
    29   24   26 1   
    30   24   30 1   
    31   24   31 1   
    32   25   32 1   
    33   25   33 1   
    34   25   34 1   
    35   26   35 1   
    36   26   36 1   
    37   26   37 1   
    38   38   39 1   
    39   38   46 1   
    40   39   40 1   
    41   39   42 1   
    42   39   47 1   
    43   40   41 2   
    44   40   50 1   
    45   42   43 1   
    46   42   48 1   
    47   42   49 1   
    48   43   44 1   
    49   43   45 1   
    50   50   51 1   
    51   50   54 1   
    52   51   52 1   
    53   51   55 1   
    54   51   56 1   
    55   52   53 2   
    56   52   57 1   
    57   57   58 1   
    58   57   65 1   
    59   58   59 1   
    60   58   61 1   
    61   58   66 1   
    62   59   60 2   
    63   59   69 1   
    64   61   62 1   
    65   61   67 1   
    66   61   68 1   
    67   62   63 1   
    68   62   64 1   
    69   69   70 1   
    70   69   73 1   
    71   70   71 1   
    72   70   74 1   
    73   70   75 1   
    74   71   72 2   
    75   71   76 1   
    76   76   77 1   
    77   76   85 1   
    78   77   78 1   
    79   77   80 1   
    80   77   86 1   
    81   78   79 2   
    82   78   93 1   
    83   80   81 1   
    84   80   87 1   
    85   80   88 1   
    86   81   82 1   
    87   81   89 1   
    88   81   90 1   
    89   82   83 1   
    90   82   84 2   
    91   83   91 1   
    92   83   92 1   
    93   93   94 1   
    94   93  100 1   
    95   94   95 1   
    96   94   97 1   
    97   94  101 1   
    98   95   96 2   
    99   95  109 1   
   100   97   98 1   
   101   97   99 1   
   102   97  102 1   
   103   98  103 1   
   104   98  104 1   
   105   98  105 1   
   106   99  106 1   
   107   99  107 1   
   108   99  108 1   
   109  109  110 1   
   110  109  117 1   
   111  110  111 1   
   112  110  113 1   
   113  110  118 1   
   114  111  112 2   
   115  111  123 1   
   116  113  114 1   
   117  113  119 1   
   118  113  120 1   
   119  114  115 1   
   120  114  116 2   
   121  115  121 1   
   122  115  122 1   
   123  123  124 1   
   124  123  135 1   
   125  124  125 1   
   126  124  127 1   
   127  124  136 1   
   128  125  126 2   
   129  125  144 1   
   130  127  128 1   
   131  127  137 1   
   132  127  138 1   
   133  128  129 ar  
   134  128  130 ar  
   135  129  131 ar  
   136  129  139 1   
   137  130  132 ar  
   138  130  140 1   
   139  131  133 ar  
   140  131  141 1   
   141  132  133 ar  
   142  132  142 1   
   143  133  134 1   
   144  134  143 1   
   145  144  145 1   
   146  144  153 1   
   147  145  146 1   
   148  145  148 1   
   149  145  154 1   
   150  146  147 2   
   151  146  159 1   
   152  148  149 1   
   153  148  155 1   
   154  148  156 1   
   155  149  150 1   
   156  149  157 1   
   157  149  158 1   
   158  150  151 1   
   159  150  152 1   
   160  159  160 1   
   161  159  168 1   
   162  160  161 1   
   163  160  163 1   
   164  160  169 1   
   165  161  162 2   
   166  161  174 1   
   167  163  164 1   
   168  163  170 1   
   169  163  171 1   
   170  164  165 1   
   171  164  172 1   
   172  164  173 1   
   173  165  166 1   
   174  165  167 1   
   175  174  175 1   
   176  174  179 1   
   177  175  176 1   
   178  175  177 1   
   179  175  178 1   
   180  181  182 1   
   181  181  183 1   
   182  184  185 1   
   183  184  186 1   
   184  187  188 1   
   185  187  189 1   
@<TRIPOS>SUBSTRUCTURE
     1 MOL         1 TEMP              0 ****  ****    0 ROOT
