@<TRIPOS>MOLECULE
MOL
  185   180     1     0     0
SMALL
resp


@<TRIPOS>ATOM
      1 C1         -5.5940    0.8790   -3.8410 c3        1 MOL     -0.507660
      2 C2         -6.3530    0.8360   -2.4820 c         1 MOL      0.726216
      3 O1         -5.8540    0.8220   -1.3560 o         1 MOL     -0.490447
      4 H1         -6.0330    1.6470   -4.4780 hc        1 MOL      0.143263
      5 H2         -4.5440    1.1100   -3.6640 hc        1 MOL      0.143263
      6 H3         -5.6750   -0.0900   -4.3340 hc        1 MOL      0.143263
      7 N1         -7.6550    0.9880   -2.5550 n         1 MOL     -0.670626
      8 C3         -8.5510    1.2860   -1.3810 c3        1 MOL      0.049062
      9 C4         -8.6130    0.0840   -0.3460 c         1 MOL      0.474793
     10 O2         -9.1250    0.2850    0.7280 o         1 MOL     -0.537684
     11 C5         -8.3250    2.6580   -0.7820 c3        1 MOL      0.021634
     12 C6         -8.0580    3.8130   -1.7400 c         1 MOL      0.688492
     13 O3         -7.6120    4.8220   -1.1850 o         1 MOL     -0.677139
     14 O4         -8.2660    3.6610   -2.9410 o         1 MOL     -0.677139
     15 H4         -8.0850    1.1040   -3.4670 hn        1 MOL      0.346637
     16 H5         -9.5580    1.4230   -1.7780 h1        1 MOL      0.053595
     17 H6         -7.4800    2.6990   -0.0850 hc        1 MOL     -0.003426
     18 H7         -9.1890    2.9390   -0.1830 hc        1 MOL     -0.003426
     19 N2         -8.1400   -1.1210   -0.7410 n         1 MOL     -0.357206
     20 C7         -8.1130   -2.3110    0.2400 c3        1 MOL      0.252874
     21 C8         -6.7250   -2.6980    0.5540 c         1 MOL      0.380537
     22 O5         -6.5770   -3.6980    1.2550 o         1 MOL     -0.511865
     23 C9         -8.9730   -3.4960   -0.3150 c3        1 MOL     -0.389651
     24 C10       -10.4660   -3.2110   -0.5790 c3        1 MOL      0.279961
     25 C11       -11.4180   -3.2510    0.6400 c3        1 MOL     -0.146951
     26 C12       -11.5200   -1.8040    1.0470 c3        1 MOL      0.002410
     27 N3        -12.3360   -1.0220    0.1170 n4        1 MOL     -0.519853
     28 H8         -7.7270   -1.2010   -1.6580 hn        1 MOL      0.204491
     29 H9         -8.6170   -2.0600    1.1730 h1        1 MOL      0.080757
     30 H10        -8.8800   -4.2780    0.4300 hc        1 MOL      0.124938
     31 H11        -8.6210   -3.8590   -1.2780 hc        1 MOL      0.124938
     32 H12       -10.8120   -3.9350   -1.3170 hc        1 MOL     -0.063410
     33 H13       -10.5500   -2.2690   -1.1250 hc        1 MOL     -0.063410
     34 H14       -11.0150   -3.8840    1.4310 hc        1 MOL      0.074395
     35 H15       -12.4110   -3.6510    0.4420 hc        1 MOL      0.074395
     36 H16       -10.5080   -1.4150    1.1660 hx        1 MOL      0.105239
     37 H17       -11.9720   -1.6900    2.0280 hx        1 MOL      0.105239
     38 H18       -13.3110   -1.2260    0.2840 hn        1 MOL      0.364822
     39 H19       -12.1710   -0.0360    0.2980 hn        1 MOL      0.364822
     40 H20       -12.1910   -1.1970   -0.8680 hn        1 MOL      0.364822
     41 N4         -5.7110   -1.9050    0.1590 n         1 MOL     -0.308078
     42 C13        -4.2400   -2.1660    0.3010 c3        1 MOL     -0.036661
     43 C14        -3.6970   -2.6580    1.6520 c         1 MOL      0.504753
     44 O6         -4.1380   -2.0760    2.6590 o         1 MOL     -0.472301
     45 C15        -3.3640   -0.9700   -0.0720 c3        1 MOL     -0.040782
     46 C16        -1.9310   -1.2770   -0.3510 c         1 MOL      0.510796
     47 O7         -1.0840   -1.2830    0.6090 o         1 MOL     -0.630591
     48 O8         -1.5600   -1.5560   -1.4810 o         1 MOL     -0.630591
     49 H21        -6.0100   -1.0560   -0.3000 hn        1 MOL      0.207145
     50 H22        -3.9160   -2.9060   -0.4310 h1        1 MOL      0.040422
     51 H23        -3.4140   -0.2340    0.7230 hc        1 MOL      0.065841
     52 H24        -3.7830   -0.5730   -0.9960 hc        1 MOL      0.065841
     53 N5         -2.8320   -3.6920    1.6200 n         1 MOL     -0.332909
     54 C17        -2.4530   -4.3030    2.8930 c3        1 MOL     -0.120747
     55 C18        -1.5710   -3.4430    3.8070 c         1 MOL      0.507771
     56 O9         -1.4500   -3.8710    4.9240 o         1 MOL     -0.530378
     57 H25        -2.6700   -4.2060    0.7680 hn        1 MOL      0.267412
     58 H26        -2.0280   -5.2920    2.7350 h1        1 MOL      0.101712
     59 H27        -3.3740   -4.4870    3.4300 h1        1 MOL      0.101712
     60 N6         -0.9000   -2.3540    3.3220 n         1 MOL     -0.295868
     61 C19        -0.1410   -1.4000    4.1070 c3        1 MOL      0.048029
     62 C20        -0.5160    0.0750    3.7440 c         1 MOL      0.444775
     63 O10         0.2220    0.9910    3.9450 o         1 MOL     -0.507968
     64 C21         1.3080   -1.5740    4.0370 c3        1 MOL     -0.321293
     65 C22         2.0570   -1.1220    2.8080 c         1 MOL      0.730472
     66 N7          2.9300   -0.1410    3.0300 n         1 MOL     -0.732494
     67 O11         1.9580   -1.7200    1.7310 o         1 MOL     -0.696025
     68 H28        -0.9120   -2.1570    2.3380 hn        1 MOL      0.264612
     69 H29        -0.3640   -1.5380    5.1640 h1        1 MOL      0.101260
     70 H30         1.3820   -2.6380    4.2610 hc        1 MOL      0.105845
     71 H31         1.7360   -1.1450    4.9460 hc        1 MOL      0.105845
     72 H32         3.2440    0.0190    3.9700 hn        1 MOL      0.336722
     73 H33         3.4190    0.2080    2.2120 hn        1 MOL      0.336722
     74 N8         -1.6850    0.2970    3.1820 n         1 MOL     -0.237632
     75 C23        -2.3000    1.6630    2.9700 c3        1 MOL     -0.127195
     76 C24        -1.5920    2.5620    1.9490 c         1 MOL      0.515297
     77 O12        -1.5710    3.7850    2.0810 o         1 MOL     -0.542242
     78 H34        -2.2440   -0.4800    2.8430 hn        1 MOL      0.084732
     79 H35        -2.3040    2.1950    3.9210 h1        1 MOL      0.118404
     80 H36        -3.3490    1.7030    2.6870 h1        1 MOL      0.118404
     81 N9         -0.8580    1.9640    1.0310 n         1 MOL     -0.364447
     82 C25        -0.0040    2.6960    0.0340 c3        1 MOL      0.307352
     83 C26         1.2880    1.9620   -0.1950 c         1 MOL      0.361214
     84 O13         1.4140    0.7050   -0.2680 o         1 MOL     -0.489838
     85 C27        -0.6930    2.9440   -1.2520 c3        1 MOL      0.006089
     86 C28        -1.9430    3.7940   -1.1780 ca        1 MOL     -0.000424
     87 C29        -1.9520    5.2010   -1.3900 ca        1 MOL     -0.182780
     88 C30        -3.1920    3.1960   -1.0370 ca        1 MOL     -0.182780
     89 C31        -3.1430    6.0210   -1.3730 ca        1 MOL     -0.235214
     90 C32        -4.3940    3.9910   -1.0900 ca        1 MOL     -0.235214
     91 C33        -4.3770    5.4060   -1.2280 ca        1 MOL      0.389316
     92 O14        -5.5060    6.1920   -1.3100 oh        1 MOL     -0.561880
     93 H37        -1.0460    0.9790    0.9280 hn        1 MOL      0.173650
     94 H38         0.2880    3.6570    0.4680 h1        1 MOL      0.014919
     95 H39        -0.9110    1.9880   -1.7340 hc        1 MOL     -0.002917
     96 H40        -0.0340    3.4550   -1.9540 hc        1 MOL     -0.002917
     97 H41        -0.9980    5.7010   -1.4820 ha        1 MOL      0.092941
     98 H42        -3.2180    2.1650   -0.6960 ha        1 MOL      0.092941
     99 H43        -3.0270    7.0990   -1.3810 ha        1 MOL      0.144271
    100 H44        -5.3700    3.5530   -0.9880 ha        1 MOL      0.144271
    101 H45        -6.2720    5.6050   -1.3310 ho        1 MOL      0.415137
    102 N10         2.2510    2.8410   -0.5990 n         1 MOL     -0.398201
    103 C34         3.6270    2.3950   -0.8470 c3        1 MOL     -0.020642
    104 C35         4.3900    2.2030    0.4590 c         1 MOL      0.606272
    105 O15         4.6520    1.0450    0.8980 o         1 MOL     -0.445618
    106 C36         4.3190    3.2550   -1.9090 c3        1 MOL      0.199935
    107 C37         3.5210    3.4610   -3.2680 c3        1 MOL     -0.281735
    108 C38         5.6950    2.6380   -2.2150 c3        1 MOL     -0.479417
    109 C39         3.2160    2.1540   -4.0360 c3        1 MOL     -0.148615
    110 H46         1.9630    3.7950   -0.4610 hn        1 MOL      0.254542
    111 H47         3.6070    1.3550   -1.1730 h1        1 MOL      0.047037
    112 H48         4.5980    4.2460   -1.5400 hc        1 MOL     -0.049387
    113 H49         4.1910    4.0580   -3.8850 hc        1 MOL      0.111643
    114 H50         2.5340    3.9110   -3.1410 hc        1 MOL      0.111643
    115 H51         6.2530    2.5690   -1.2860 hc        1 MOL      0.132947
    116 H52         5.5090    1.6120   -2.5330 hc        1 MOL      0.132947
    117 H53         6.2040    3.2450   -2.9600 hc        1 MOL      0.132947
    118 H54         2.6600    2.2770   -4.9700 hc        1 MOL      0.062146
    119 H55         4.1480    1.7300   -4.3920 hc        1 MOL      0.062146
    120 H56         2.6510    1.4710   -3.4020 hc        1 MOL      0.062146
    121 N11         4.7980    3.3600    1.0470 n         1 MOL     -0.435215
    122 C40         5.4350    3.3550    2.4020 c3        1 MOL     -0.088267
    123 C41         6.9150    2.8760    2.2820 c         1 MOL      0.387465
    124 O16         7.3710    2.1260    3.2190 o         1 MOL     -0.450331
    125 C42         5.1780    4.6830    3.1160 c3        1 MOL      0.213798
    126 O17         3.8160    4.7540    3.4610 oh        1 MOL     -0.589320
    127 H57         4.4630    4.2710    0.7620 hn        1 MOL      0.314148
    128 H58         4.9320    2.5960    2.9860 h1        1 MOL      0.175712
    129 H59         5.4160    5.4850    2.4240 h1        1 MOL      0.016172
    130 H60         5.8700    4.8270    3.9410 h1        1 MOL      0.016172
    131 H61         3.6570    5.6010    3.8780 ho        1 MOL      0.414042
    132 N12         7.5340    3.1310    1.1280 n         1 MOL     -0.386167
    133 C43         8.8130    2.5450    0.7390 c3        1 MOL      0.170072
    134 C44         8.8810    1.0340    0.8340 c         1 MOL      0.433704
    135 O18         9.9860    0.4590    1.0330 o         1 MOL     -0.518662
    136 C45         9.9430    3.2380    1.6060 c3        1 MOL     -0.436758
    137 H62         7.1530    3.6360    0.3440 hn        1 MOL      0.284011
    138 H63         8.9920    2.8050   -0.3010 h1        1 MOL      0.066710
    139 H64         9.7280    2.9710    2.6430 hc        1 MOL      0.136038
    140 H65        10.9750    3.0140    1.3140 hc        1 MOL      0.136038
    141 H66         9.8840    4.3100    1.4200 hc        1 MOL      0.136038
    142 N13         7.7430    0.2930    0.7450 n         1 MOL     -0.432228
    143 C46         7.7030   -1.1750    0.7750 c3        1 MOL      0.577261
    144 C47         7.2510   -1.8890   -0.5300 c         1 MOL      0.187683
    145 O19         6.6220   -1.2940   -1.4130 o         1 MOL     -0.439722
    146 C48         6.8110   -1.6150    1.9350 c3        1 MOL     -0.353666
    147 H67         6.8470    0.7600    0.7460 hn        1 MOL      0.114399
    148 H68         8.6790   -1.6440    0.9500 h1        1 MOL     -0.050192
    149 H69         5.8080   -1.3500    1.5930 hc        1 MOL      0.094967
    150 H70         6.9230   -2.6990    2.0420 hc        1 MOL      0.094967
    151 H71         7.0400   -1.0850    2.8590 hc        1 MOL      0.094967
    152 N14         7.4800   -3.2010   -0.7220 n         1 MOL     -0.306484
    153 C49         7.2800   -3.8770   -2.0210 c3        1 MOL     -0.179436
    154 C50         8.0750   -3.2190   -3.2260 c         1 MOL      0.532309
    155 O20         7.8090   -3.4380   -4.3670 o         1 MOL     -0.512765
    156 C51         5.7650   -4.0360   -2.3550 c3        1 MOL      0.050853
    157 C52         4.9610   -4.6650   -1.2680 c3        1 MOL     -0.057058
    158 C53         3.4990   -4.7950   -1.6240 c         1 MOL      0.595944
    159 O21         3.1200   -5.7990   -2.3140 o         1 MOL     -0.679124
    160 O22         2.6740   -3.9220   -1.1680 o         1 MOL     -0.679124
    161 H72         7.9690   -3.7650   -0.0430 hn        1 MOL      0.275372
    162 H73         7.8320   -4.8040   -1.8750 h1        1 MOL      0.109589
    163 H74         5.6510   -4.6840   -3.2300 hc        1 MOL      0.039820
    164 H75         5.3320   -3.0910   -2.6820 hc        1 MOL      0.039820
    165 H76         5.1310   -4.2860   -0.2510 hc        1 MOL      0.001954
    166 H77         5.1320   -5.7440   -1.2350 hc        1 MOL      0.001954
    167 N15         9.1560   -2.4960   -3.0100 n         1 MOL     -0.349980
    168 C54         9.9200   -1.7290   -4.0660 c3        1 MOL     -0.008852
    169 H78         9.5500   -2.0050   -5.0530 h1        1 MOL      0.057799
    170 H79         9.7780   -0.6590   -3.9120 h1        1 MOL      0.057799
    171 H80        10.9800   -1.9690   -3.9960 h1        1 MOL      0.057799
    172 H81         9.4820   -2.3320   -2.0650 hn        1 MOL      0.224132
    173 Ca1         1.0150   -1.8660   -0.9100 Ca        1 MOL      1.774724
    174 O23         0.5630   -0.4610   -3.1640 oh        1 MOL     -0.876450
    175 H82         0.6290   -0.7650   -4.0720 ho        1 MOL      0.425344
    176 H83         0.3230    0.4640   -3.2250 ho        1 MOL      0.425344
    177 O24        -0.0200   -4.0880    0.0980 oh        1 MOL     -0.876450
    178 H84         0.1750   -4.6580    0.8450 ho        1 MOL      0.425344
    179 H85        -0.1800   -4.6860   -0.6280 ho        1 MOL      0.425344
    180 O25         3.7620   -1.1980   -0.9760 oh        1 MOL     -0.876450
    181 H86         4.6060   -1.3560   -1.4110 ho        1 MOL      0.425344
    182 H87         3.9830   -0.6500   -0.2220 ho        1 MOL      0.425344
    183 O26         0.5390   -3.4490   -3.2170 oh        1 MOL     -0.876450
    184 H88         0.0360   -3.1870   -3.9810 ho        1 MOL      0.425344
    185 H89         0.9520   -4.2800   -3.4810 ho        1 MOL      0.425344
@<TRIPOS>BOND
     1    1    2 1   
     2    1    4 1   
     3    1    5 1   
     4    1    6 1   
     5    2    3 2   
     6    2    7 1   
     7    7    8 1   
     8    7   15 1   
     9    8    9 1   
    10    8   11 1   
    11    8   16 1   
    12    9   10 2   
    13    9   19 1   
    14   11   12 1   
    15   11   17 1   
    16   11   18 1   
    17   12   13 1   
    18   12   14 1   
    19   19   20 1   
    20   19   28 1   
    21   20   21 1   
    22   20   23 1   
    23   20   29 1   
    24   21   22 2   
    25   21   41 1   
    26   23   24 1   
    27   23   30 1   
    28   23   31 1   
    29   24   25 1   
    30   24   32 1   
    31   24   33 1   
    32   25   26 1   
    33   25   34 1   
    34   25   35 1   
    35   26   27 1   
    36   26   36 1   
    37   26   37 1   
    38   27   38 1   
    39   27   39 1   
    40   27   40 1   
    41   41   42 1   
    42   41   49 1   
    43   42   43 1   
    44   42   45 1   
    45   42   50 1   
    46   43   44 2   
    47   43   53 1   
    48   45   46 1   
    49   45   51 1   
    50   45   52 1   
    51   46   47 1   
    52   46   48 1   
    53   53   54 1   
    54   53   57 1   
    55   54   55 1   
    56   54   58 1   
    57   54   59 1   
    58   55   56 2   
    59   55   60 1   
    60   60   61 1   
    61   60   68 1   
    62   61   62 1   
    63   61   64 1   
    64   61   69 1   
    65   62   63 2   
    66   62   74 1   
    67   64   65 1   
    68   64   70 1   
    69   64   71 1   
    70   65   66 1   
    71   65   67 2   
    72   66   72 1   
    73   66   73 1   
    74   74   75 1   
    75   74   78 1   
    76   75   76 1   
    77   75   79 1   
    78   75   80 1   
    79   76   77 2   
    80   76   81 1   
    81   81   82 1   
    82   81   93 1   
    83   82   83 1   
    84   82   85 1   
    85   82   94 1   
    86   83   84 2   
    87   83  102 1   
    88   85   86 1   
    89   85   95 1   
    90   85   96 1   
    91   86   87 ar  
    92   86   88 ar  
    93   87   89 ar  
    94   87   97 1   
    95   88   90 ar  
    96   88   98 1   
    97   89   91 ar  
    98   89   99 1   
    99   90   91 ar  
   100   90  100 1   
   101   91   92 1   
   102   92  101 1   
   103  102  103 1   
   104  102  110 1   
   105  103  104 1   
   106  103  106 1   
   107  103  111 1   
   108  104  105 2   
   109  104  121 1   
   110  106  107 1   
   111  106  108 1   
   112  106  112 1   
   113  107  109 1   
   114  107  113 1   
   115  107  114 1   
   116  108  115 1   
   117  108  116 1   
   118  108  117 1   
   119  109  118 1   
   120  109  119 1   
   121  109  120 1   
   122  121  122 1   
   123  121  127 1   
   124  122  123 1   
   125  122  125 1   
   126  122  128 1   
   127  123  124 2   
   128  123  132 1   
   129  125  126 1   
   130  125  129 1   
   131  125  130 1   
   132  126  131 1   
   133  132  133 1   
   134  132  137 1   
   135  133  134 1   
   136  133  136 1   
   137  133  138 1   
   138  134  135 2   
   139  134  142 1   
   140  136  139 1   
   141  136  140 1   
   142  136  141 1   
   143  142  143 1   
   144  142  147 1   
   145  143  144 1   
   146  143  146 1   
   147  143  148 1   
   148  144  145 2   
   149  144  152 1   
   150  146  149 1   
   151  146  150 1   
   152  146  151 1   
   153  152  153 1   
   154  152  161 1   
   155  153  154 1   
   156  153  156 1   
   157  153  162 1   
   158  154  155 2   
   159  154  167 1   
   160  156  157 1   
   161  156  163 1   
   162  156  164 1   
   163  157  158 1   
   164  157  165 1   
   165  157  166 1   
   166  158  159 1   
   167  158  160 1   
   168  167  168 1   
   169  167  172 1   
   170  168  169 1   
   171  168  170 1   
   172  168  171 1   
   173  174  175 1   
   174  174  176 1   
   175  177  178 1   
   176  177  179 1   
   177  180  181 1   
   178  180  182 1   
   179  183  184 1   
   180  183  185 1   
@<TRIPOS>SUBSTRUCTURE
     1 MOL         1 TEMP              0 ****  ****    0 ROOT
