@<TRIPOS>MOLECULE
MOL
  179   176     1     0     0
SMALL
resp


@<TRIPOS>ATOM
      1 C1          0.3620   -3.5900    5.8440 c3        1 MOL     -0.382565
      2 C2          0.3560   -3.3360    4.3230 c         1 MOL      0.805156
      3 O1         -0.6350   -3.1830    3.6360 o         1 MOL     -0.631961
      4 H1          1.3900   -3.7000    6.1900 hc        1 MOL      0.111163
      5 H2         -0.1050   -2.7480    6.3560 hc        1 MOL      0.111163
      6 H3         -0.1940   -4.5020    6.0630 hc        1 MOL      0.111163
      7 N1          1.5740   -3.2460    3.7840 n         1 MOL     -0.761230
      8 C3          1.8210   -3.1920    2.3260 c3        1 MOL      0.108111
      9 C4          1.4750   -4.4890    1.5610 c         1 MOL      0.658591
     10 O2          1.5410   -5.6380    2.0590 o         1 MOL     -0.538622
     11 C5          3.2280   -2.7400    2.1530 c3        1 MOL     -0.106244
     12 C6          3.4330   -1.8080    0.9790 c         1 MOL      0.742029
     13 O3          3.7450   -0.6230    1.2230 o         1 MOL     -0.745742
     14 O4          3.2610   -2.1770   -0.2400 o         1 MOL     -0.745742
     15 H4          2.3590   -3.3770    4.4090 hn        1 MOL      0.374965
     16 H5          1.1670   -2.3850    1.9810 h1        1 MOL     -0.012779
     17 H6          3.8860   -3.6110    2.1130 hc        1 MOL      0.066570
     18 H7          3.5210   -2.2350    3.0730 hc        1 MOL      0.066570
     19 N2          1.4020   -4.3190    0.2000 n         1 MOL     -0.535231
     20 C7          1.3140   -5.3720   -0.7890 c3        1 MOL      0.006689
     21 C8          2.4690   -5.3920   -1.8330 c         1 MOL      0.507189
     22 O5          2.6580   -6.3630   -2.5490 o         1 MOL     -0.545718
     23 C9         -0.0810   -5.2780   -1.4830 c3        1 MOL      0.003395
     24 C10        -1.3070   -5.7800   -0.6260 c3        1 MOL      0.043326
     25 C11        -2.6860   -5.6320   -1.3950 c3        1 MOL     -0.014365
     26 C12        -2.7080   -6.3490   -2.8160 c3        1 MOL      0.104623
     27 N3         -4.0640   -6.4190   -3.4150 n4        1 MOL     -0.358953
     28 H8          1.3500   -3.4010   -0.2140 hn        1 MOL      0.407540
     29 H9          1.4150   -6.3300   -0.2750 h1        1 MOL      0.108650
     30 H10        -0.0490   -5.9270   -2.3560 hc        1 MOL     -0.014528
     31 H11        -0.3560   -4.2520   -1.7280 hc        1 MOL     -0.014528
     32 H12        -1.3820   -5.2670    0.3370 hc        1 MOL      0.009346
     33 H13        -1.2210   -6.8630   -0.4560 hc        1 MOL      0.009346
     34 H14        -2.9940   -4.6180   -1.6630 hc        1 MOL      0.030384
     35 H15        -3.4770   -6.0540   -0.7700 hc        1 MOL      0.030384
     36 H16        -2.4200   -7.4000   -2.6920 hx        1 MOL      0.058914
     37 H17        -2.0700   -5.8170   -3.5200 hx        1 MOL      0.058914
     38 H18        -4.3940   -5.4700   -3.4710 hn        1 MOL      0.272221
     39 H19        -4.0890   -6.7600   -4.3610 hn        1 MOL      0.272221
     40 H20        -4.6750   -7.0280   -2.8730 hn        1 MOL      0.272221
     41 N4          3.3350   -4.3170   -1.9080 n         1 MOL     -0.243953
     42 C13         4.5570   -4.1980   -2.6680 c3        1 MOL      0.113261
     43 C14         5.8600   -3.9350   -1.7970 c         1 MOL      0.491932
     44 O6          6.8190   -4.6340   -2.0150 o         1 MOL     -0.565187
     45 C15         4.5380   -3.0130   -3.7060 c3        1 MOL     -0.300906
     46 C16         4.1820   -1.5950   -3.1340 c         1 MOL      0.885537
     47 O7          5.0090   -0.9430   -2.5040 o         1 MOL     -0.837498
     48 O8          3.0580   -1.0420   -3.1280 o         1 MOL     -0.837498
     49 H21         3.0790   -3.5290   -1.3390 hn        1 MOL      0.054648
     50 H22         4.7160   -5.1030   -3.2440 h1        1 MOL      0.082287
     51 H23         3.8110   -3.2290   -4.4810 hc        1 MOL      0.083471
     52 H24         5.4950   -2.9450   -4.2280 hc        1 MOL      0.083471
     53 N5          5.8270   -3.1530   -0.7250 n         1 MOL     -0.146592
     54 C17         6.9720   -3.0810    0.2510 c3        1 MOL     -0.002328
     55 C18         7.2300   -1.7080    0.8680 c         1 MOL      0.388027
     56 O9          7.7870   -1.5900    1.9420 o         1 MOL     -0.494514
     57 H25         5.1010   -2.4420   -0.7420 hn        1 MOL     -0.064218
     58 H26         7.8820   -3.3320   -0.2790 h1        1 MOL      0.068609
     59 H27         6.8350   -3.8280    1.0380 h1        1 MOL      0.068609
     60 N6          6.8030   -0.6080    0.2200 n         1 MOL     -0.125766
     61 C19         7.3490    0.7150    0.5580 c3        1 MOL      0.022113
     62 C20         6.3250    1.7690    0.1980 c         1 MOL      0.496986
     63 O10         5.2550    1.4430   -0.3860 o         1 MOL     -0.415385
     64 C21         8.7160    0.8560   -0.1940 c3        1 MOL     -0.411869
     65 C22         9.8550    0.1010    0.3560 c         1 MOL      0.719902
     66 N7         10.1130   -1.0260   -0.2750 n         1 MOL     -0.812565
     67 O11        10.3760    0.4280    1.4050 o         1 MOL     -0.546586
     68 H28         6.3470   -0.6470   -0.6780 hn        1 MOL      0.232537
     69 H29         7.4030    0.7540    1.6500 h1        1 MOL      0.105919
     70 H30         9.0960    1.8780   -0.1270 hc        1 MOL      0.100318
     71 H31         8.5890    0.7010   -1.2660 hc        1 MOL      0.100318
     72 H32         9.5300   -1.3110   -1.0460 hn        1 MOL      0.377679
     73 H33        10.7850   -1.6680    0.1200 hn        1 MOL      0.377679
     74 N8          6.6760    3.0390    0.5720 n         1 MOL     -0.493797
     75 C23         5.9840    4.2710    0.2120 c3        1 MOL      0.116501
     76 C24         4.6990    4.5170    1.0220 c         1 MOL      0.506214
     77 O12         4.5800    3.9900    2.1450 o         1 MOL     -0.508765
     78 H34         7.5180    3.1460    1.1270 hn        1 MOL      0.340776
     79 H35         5.7150    4.2680   -0.8480 h1        1 MOL      0.020875
     80 H36         6.6670    5.0980    0.3940 h1        1 MOL      0.020875
     81 N9          3.6480    5.0370    0.4010 n         1 MOL     -0.451006
     82 C25         2.2850    4.7710    0.8000 c3        1 MOL      0.064696
     83 C26         1.8790    3.3070    1.1000 c         1 MOL      0.468864
     84 O13         2.5830    2.4270    0.6570 o         1 MOL     -0.332337
     85 C27         1.3570    5.2890   -0.3750 c3        1 MOL     -0.096262
     86 C28         1.7980    6.6080   -0.8690 ca        1 MOL      0.047686
     87 C29         1.3920    7.8360   -0.2110 ca        1 MOL     -0.137627
     88 C30         2.5270    6.7720   -2.0710 ca        1 MOL     -0.137627
     89 C31         1.7930    9.0910   -0.7160 ca        1 MOL     -0.234232
     90 C32         2.7450    8.0530   -2.6580 ca        1 MOL     -0.234232
     91 C33         2.4420    9.2000   -1.9240 ca        1 MOL      0.326554
     92 O14         2.9340   10.4380   -2.4250 oh        1 MOL     -0.494664
     93 H37         3.9270    5.4770   -0.4580 hn        1 MOL      0.224435
     94 H38         2.0440    5.4150    1.6460 h1        1 MOL      0.091970
     95 H39         0.3660    5.2490    0.0890 hc        1 MOL      0.039035
     96 H40         1.2890    4.5310   -1.1560 hc        1 MOL      0.039035
     97 H41         0.8730    7.7730    0.7340 ha        1 MOL      0.111072
     98 H42         2.7260    5.8900   -2.6730 ha        1 MOL      0.111072
     99 H43         1.5350    9.9470   -0.1220 ha        1 MOL      0.159148
    100 H44         3.3370    8.1280   -3.5550 ha        1 MOL      0.159148
    101 H45         2.7870   11.1060   -1.7520 ho        1 MOL      0.373257
    102 N10         0.7460    3.0960    1.8050 n         1 MOL     -0.607338
    103 C34         0.2990    1.7390    2.2410 c3        1 MOL      0.046026
    104 C35         0.0680    0.6830    1.1340 c         1 MOL      0.386578
    105 O15         0.9700    0.0520    0.5370 o         1 MOL     -0.551347
    106 C36         1.2230    1.1280    3.3950 c3        1 MOL      0.129379
    107 C37         0.5660   -0.0220    4.1200 c3        1 MOL      0.001305
    108 C38         1.9440    2.0860    4.2640 c3        1 MOL     -0.125422
    109 C39        -0.6500    0.3550    4.9960 c3        1 MOL     -0.357204
    110 H46         0.1160    3.8690    1.9560 hn        1 MOL      0.344730
    111 H47        -0.6600    1.9960    2.6930 h1        1 MOL      0.094699
    112 H48         1.9130    0.5990    2.7430 hc        1 MOL     -0.019620
    113 H49         1.2440   -0.3910    4.8910 hc        1 MOL      0.073794
    114 H50         0.3070   -0.8060    3.4120 hc        1 MOL      0.073794
    115 H51         2.4220    1.5290    5.0690 hc        1 MOL      0.041699
    116 H52         2.5520    2.6940    3.5870 hc        1 MOL      0.041699
    117 H53         1.2950    2.7830    4.7860 hc        1 MOL      0.041699
    118 H54        -1.4310    0.5410    4.2570 hc        1 MOL      0.082554
    119 H55        -0.7090   -0.5260    5.6350 hc        1 MOL      0.082554
    120 H56        -0.5620    1.2240    5.6590 hc        1 MOL      0.082554
    121 N11        -1.2110    0.3690    0.8140 n         1 MOL     -0.201078
    122 C40        -1.7180   -0.6120   -0.2300 c3        1 MOL     -0.282631
    123 C41        -3.1940   -0.5380   -0.6060 c         1 MOL      0.567885
    124 O16        -3.7130   -1.3150   -1.4490 o         1 MOL     -0.490284
    125 C42        -1.3900   -2.0370    0.2250 c3        1 MOL      0.165920
    126 O17        -2.3080   -2.3400    1.2640 oh        1 MOL     -0.589594
    127 H57        -1.8920    0.9220    1.3200 hn        1 MOL      0.198765
    128 H58        -1.1470   -0.3880   -1.1340 h1        1 MOL      0.166398
    129 H59        -0.3720   -2.0740    0.6150 h1        1 MOL      0.036951
    130 H60        -1.7050   -2.8060   -0.4790 h1        1 MOL      0.036951
    131 H61        -1.7740   -2.6350    2.0180 ho        1 MOL      0.422261
    132 N12        -3.9340    0.3680    0.0370 n         1 MOL     -0.532618
    133 C43        -5.3390    0.5830   -0.2680 c3        1 MOL      0.221538
    134 C44        -5.6620    1.0270   -1.7030 c         1 MOL      0.479084
    135 O18        -4.9170    1.6470   -2.4390 o         1 MOL     -0.536658
    136 C45        -5.8850    1.5600    0.7190 c3        1 MOL     -0.258629
    137 H62        -3.4740    0.9010    0.7580 hn        1 MOL      0.319361
    138 H63        -5.9220   -0.2840    0.0080 h1        1 MOL      0.105373
    139 H64        -5.8930    1.0100    1.6620 hc        1 MOL      0.072120
    140 H65        -5.3290    2.4900    0.8180 hc        1 MOL      0.072120
    141 H66        -6.9580    1.6690    0.5180 hc        1 MOL      0.072120
    142 N13        -6.8960    0.7280   -2.1490 n         1 MOL     -0.439360
    143 C46        -8.0270    0.1370   -1.4720 c3        1 MOL      0.147900
    144 C47        -9.3610    0.4980   -2.1830 c         1 MOL      0.318346
    145 O19        -9.3870    0.5090   -3.4380 o         1 MOL     -0.536385
    146 C48        -7.8370   -1.3720   -1.6240 c3        1 MOL      0.023235
    147 H67        -7.1140    1.0820   -3.0730 hn        1 MOL      0.292731
    148 H68        -8.0960    0.3300   -0.4050 h1        1 MOL      0.003739
    149 H69        -8.0230   -1.7510   -2.6270 hc        1 MOL     -0.001067
    150 H70        -6.8060   -1.6780   -1.4900 hc        1 MOL     -0.001067
    151 H71        -8.4880   -1.8290   -0.8760 hc        1 MOL     -0.001067
    152 N14       -10.4430    0.7150   -1.5750 n         1 MOL     -0.196991
    153 C49       -10.7720    0.4890   -0.1180 c3        1 MOL     -0.321124
    154 C50       -10.1500    1.5630    0.7870 c         1 MOL      0.611447
    155 O20        -9.5160    1.1950    1.7460 o         1 MOL     -0.528702
    156 C51       -12.2620    0.4200   -0.0140 c3        1 MOL     -0.061548
    157 C52       -12.7310   -0.1360    1.3080 c3        1 MOL     -0.263715
    158 C53       -14.2440   -0.3080    1.3520 c         1 MOL      0.733166
    159 O21       -14.7840   -1.4280    1.1610 o         1 MOL     -0.661601
    160 O22       -15.0220    0.6510    1.7050 o         1 MOL     -0.661601
    161 H72       -11.1260    1.2420   -2.1050 hn        1 MOL      0.253567
    162 H73       -10.3870   -0.5120    0.0570 h1        1 MOL      0.217401
    163 H74       -12.6960   -0.2680   -0.7390 hc        1 MOL      0.060972
    164 H75       -12.6740    1.3980   -0.2650 hc        1 MOL      0.060972
    165 H76       -12.4610    0.5820    2.0710 hc        1 MOL      0.066878
    166 H77       -12.2610   -1.0580    1.6430 hc        1 MOL      0.066878
    167 N15       -10.1010    2.8130    0.2960 n         1 MOL     -0.316624
    168 C54        -9.2810    3.8990    0.7120 c3        1 MOL     -0.222371
    169 H78        -8.3580    3.5120    1.1440 h1        1 MOL      0.108093
    170 H79        -9.0440    4.5270   -0.1480 h1        1 MOL      0.108093
    171 H80        -9.8110    4.4890    1.4590 h1        1 MOL      0.108093
    172 H81       -10.6810    2.9230   -0.5270 hn        1 MOL      0.271498
    173 Ca1         2.9680    0.4280   -1.0990 Ca        1 MOL      1.790153
    174 O23         3.9210    2.6550   -2.3250 oh        1 MOL     -0.876038
    175 H82         3.5280    3.4020   -2.7740 ho        1 MOL      0.430728
    176 H83         4.8500    2.7180   -2.5440 ho        1 MOL      0.430728
    177 O24         0.9330    1.8100   -2.3200 oh        1 MOL     -0.876038
    178 H84        -0.0180    1.8100   -2.2140 ho        1 MOL      0.430728
    179 H85         1.1010    2.4910   -2.9730 ho        1 MOL      0.430728
@<TRIPOS>BOND
     1    1    2 1   
     2    1    4 1   
     3    1    5 1   
     4    1    6 1   
     5    2    3 2   
     6    2    7 1   
     7    7    8 1   
     8    7   15 1   
     9    8    9 1   
    10    8   11 1   
    11    8   16 1   
    12    9   10 2   
    13    9   19 1   
    14   11   12 1   
    15   11   17 1   
    16   11   18 1   
    17   12   13 1   
    18   12   14 1   
    19   19   20 1   
    20   19   28 1   
    21   20   21 1   
    22   20   23 1   
    23   20   29 1   
    24   21   22 2   
    25   21   41 1   
    26   23   24 1   
    27   23   30 1   
    28   23   31 1   
    29   24   25 1   
    30   24   32 1   
    31   24   33 1   
    32   25   26 1   
    33   25   34 1   
    34   25   35 1   
    35   26   27 1   
    36   26   36 1   
    37   26   37 1   
    38   27   38 1   
    39   27   39 1   
    40   27   40 1   
    41   41   42 1   
    42   41   49 1   
    43   42   43 1   
    44   42   45 1   
    45   42   50 1   
    46   43   44 2   
    47   43   53 1   
    48   45   46 1   
    49   45   51 1   
    50   45   52 1   
    51   46   47 1   
    52   46   48 1   
    53   53   54 1   
    54   53   57 1   
    55   54   55 1   
    56   54   58 1   
    57   54   59 1   
    58   55   56 2   
    59   55   60 1   
    60   60   61 1   
    61   60   68 1   
    62   61   62 1   
    63   61   64 1   
    64   61   69 1   
    65   62   63 2   
    66   62   74 1   
    67   64   65 1   
    68   64   70 1   
    69   64   71 1   
    70   65   66 1   
    71   65   67 2   
    72   66   72 1   
    73   66   73 1   
    74   74   75 1   
    75   74   78 1   
    76   75   76 1   
    77   75   79 1   
    78   75   80 1   
    79   76   77 2   
    80   76   81 1   
    81   81   82 1   
    82   81   93 1   
    83   82   83 1   
    84   82   85 1   
    85   82   94 1   
    86   83   84 2   
    87   83  102 1   
    88   85   86 1   
    89   85   95 1   
    90   85   96 1   
    91   86   87 ar  
    92   86   88 ar  
    93   87   89 ar  
    94   87   97 1   
    95   88   90 ar  
    96   88   98 1   
    97   89   91 ar  
    98   89   99 1   
    99   90   91 ar  
   100   90  100 1   
   101   91   92 1   
   102   92  101 1   
   103  102  103 1   
   104  102  110 1   
   105  103  104 1   
   106  103  106 1   
   107  103  111 1   
   108  104  105 2   
   109  104  121 1   
   110  106  107 1   
   111  106  108 1   
   112  106  112 1   
   113  107  109 1   
   114  107  113 1   
   115  107  114 1   
   116  108  115 1   
   117  108  116 1   
   118  108  117 1   
   119  109  118 1   
   120  109  119 1   
   121  109  120 1   
   122  121  122 1   
   123  121  127 1   
   124  122  123 1   
   125  122  125 1   
   126  122  128 1   
   127  123  124 2   
   128  123  132 1   
   129  125  126 1   
   130  125  129 1   
   131  125  130 1   
   132  126  131 1   
   133  132  133 1   
   134  132  137 1   
   135  133  134 1   
   136  133  136 1   
   137  133  138 1   
   138  134  135 2   
   139  134  142 1   
   140  136  139 1   
   141  136  140 1   
   142  136  141 1   
   143  142  143 1   
   144  142  147 1   
   145  143  144 1   
   146  143  146 1   
   147  143  148 1   
   148  144  145 2   
   149  144  152 1   
   150  146  149 1   
   151  146  150 1   
   152  146  151 1   
   153  152  153 1   
   154  152  161 1   
   155  153  154 1   
   156  153  156 1   
   157  153  162 1   
   158  154  155 2   
   159  154  167 1   
   160  156  157 1   
   161  156  163 1   
   162  156  164 1   
   163  157  158 1   
   164  157  165 1   
   165  157  166 1   
   166  158  159 1   
   167  158  160 1   
   168  167  168 1   
   169  167  172 1   
   170  168  169 1   
   171  168  170 1   
   172  168  171 1   
   173  174  175 1   
   174  174  176 1   
   175  177  178 1   
   176  177  179 1   
@<TRIPOS>SUBSTRUCTURE
     1 MOL         1 TEMP              0 ****  ****    0 ROOT
