@<TRIPOS>MOLECULE
MOL
  179   176     1     0     0
SMALL
resp


@<TRIPOS>ATOM
      1 C1          0.9960   -4.5930    6.0990 c3        1 MOL     -0.375970
      2 C2          0.9680   -4.3100    4.6080 c         1 MOL      0.797053
      3 O1          0.0050   -4.4740    3.9290 o         1 MOL     -0.637799
      4 H1          0.0760   -5.1000    6.3890 hc        1 MOL      0.100140
      5 H2          1.8500   -5.2300    6.3330 hc        1 MOL      0.100140
      6 H3          1.0830   -3.6540    6.6460 hc        1 MOL      0.100140
      7 N1          2.0310   -3.7780    4.0240 n         1 MOL     -0.673442
      8 C3          2.1410   -3.3960    2.5940 c3        1 MOL      0.155756
      9 C4          2.6380   -4.4780    1.6910 c         1 MOL      0.620926
     10 O2          3.6840   -5.0980    1.8810 o         1 MOL     -0.567086
     11 C5          3.0820   -2.1130    2.6190 c3        1 MOL      0.032362
     12 C6          3.2910   -1.3750    1.2650 c         1 MOL      0.560582
     13 O3          3.7280   -0.1580    1.1880 o         1 MOL     -0.743079
     14 O4          2.8820   -1.8860    0.2410 o         1 MOL     -0.743079
     15 H4          2.8030   -3.5580    4.6390 hn        1 MOL      0.311116
     16 H5          1.1540   -3.0750    2.2520 h1        1 MOL      0.004819
     17 H6          4.0560   -2.5330    2.8760 hc        1 MOL      0.016856
     18 H7          2.7170   -1.4390    3.3970 hc        1 MOL      0.016856
     19 N2          1.9220   -4.7130    0.6110 n         1 MOL     -0.424733
     20 C7          2.1630   -5.7380   -0.4400 c3        1 MOL     -0.102898
     21 C8          3.3070   -5.3430   -1.4450 c         1 MOL      0.608473
     22 O5          3.7380   -6.2220   -2.1220 o         1 MOL     -0.585767
     23 C9          0.8490   -5.9070   -1.1830 c3        1 MOL      0.111186
     24 C10         0.7140   -7.2770   -1.9750 c3        1 MOL     -0.032188
     25 C11        -0.7830   -7.5500   -2.3160 c3        1 MOL     -0.042903
     26 C12        -0.9250   -8.5700   -3.4000 c3        1 MOL      0.111107
     27 N3         -2.3330   -8.8130   -3.7500 n4        1 MOL     -0.300293
     28 H8          1.1240   -4.1220    0.4160 hn        1 MOL      0.260280
     29 H9          2.4950   -6.6310    0.0870 h1        1 MOL      0.119403
     30 H10         0.6520   -5.0040   -1.7660 hc        1 MOL     -0.010373
     31 H11         0.0100   -5.8890   -0.4910 hc        1 MOL     -0.010373
     32 H12         1.1610   -8.0790   -1.3830 hc        1 MOL      0.033599
     33 H13         1.2840   -7.1370   -2.8960 hc        1 MOL      0.033599
     34 H14        -1.2510   -6.6800   -2.7760 hc        1 MOL      0.034418
     35 H15        -1.2720   -7.8680   -1.3990 hc        1 MOL      0.034418
     36 H16        -0.4120   -9.4950   -3.1290 hx        1 MOL      0.053114
     37 H17        -0.4840   -8.1590   -4.3020 hx        1 MOL      0.053114
     38 H18        -2.3490   -9.4620   -4.5200 hn        1 MOL      0.272626
     39 H19        -2.8650   -9.2190   -2.9910 hn        1 MOL      0.272626
     40 H20        -2.7440   -7.9190   -3.9540 hn        1 MOL      0.272626
     41 N4          3.7300   -4.1300   -1.3980 n         1 MOL     -0.404436
     42 C13         4.8460   -3.6350   -2.2560 c3        1 MOL      0.007658
     43 C14         5.9630   -2.9140   -1.4580 c         1 MOL      0.391097
     44 O6          7.0390   -2.5000   -2.0320 o         1 MOL     -0.569883
     45 C15         4.2350   -2.7280   -3.2700 c3        1 MOL     -0.168104
     46 C16         3.5910   -1.4800   -2.6660 c         1 MOL      0.780824
     47 O7          4.2340   -0.5890   -2.1290 o         1 MOL     -0.797531
     48 O8          2.3540   -1.2690   -2.7310 o         1 MOL     -0.797531
     49 H21         3.2520   -3.3860   -0.9070 hn        1 MOL      0.289606
     50 H22         5.2860   -4.4590   -2.8010 h1        1 MOL      0.135058
     51 H23         3.4970   -3.2010   -3.9130 hc        1 MOL      0.060724
     52 H24         5.0220   -2.4210   -3.9700 hc        1 MOL      0.060724
     53 N5          5.7410   -2.7000   -0.1430 n         1 MOL     -0.050260
     54 C17         6.6910   -2.1360    0.8360 c3        1 MOL     -0.337517
     55 C18         7.1230   -0.7000    0.6450 c         1 MOL      0.548434
     56 O9          7.9680   -0.2080    1.3490 o         1 MOL     -0.547339
     57 H25         4.8590   -2.9920    0.2420 hn        1 MOL      0.114024
     58 H26         7.6020   -2.7260    0.7710 h1        1 MOL      0.147934
     59 H27         6.1880   -2.3640    1.7800 h1        1 MOL      0.147934
     60 N6          6.5820    0.0590   -0.3180 n         1 MOL     -0.148156
     61 C19         7.0310    1.4070   -0.6720 c3        1 MOL      0.018635
     62 C20         5.8550    2.3750   -0.9060 c         1 MOL      0.498368
     63 O10         4.6560    1.9170   -0.9110 o         1 MOL     -0.501522
     64 C21         7.9750    1.2960   -1.8780 c3        1 MOL     -0.174944
     65 C22         9.2590    0.5740   -1.6970 c         1 MOL      0.677092
     66 N7          9.2550   -0.7500   -1.7600 n         1 MOL     -0.849976
     67 O11        10.3200    1.1420   -1.4010 o         1 MOL     -0.587418
     68 H28         5.8680   -0.3210   -0.9140 hn        1 MOL      0.278651
     69 H29         7.5320    1.9330    0.1350 h1        1 MOL      0.056994
     70 H30         8.2620    2.2910   -2.2220 hc        1 MOL      0.027119
     71 H31         7.4710    0.8160   -2.7130 hc        1 MOL      0.027119
     72 H32         8.3830   -1.2150   -1.9700 hn        1 MOL      0.393338
     73 H33        10.0240   -1.2970   -1.4000 hn        1 MOL      0.393338
     74 N8          6.0860    3.7200   -0.8930 n         1 MOL     -0.397192
     75 C23         5.0690    4.7220   -1.2220 c3        1 MOL     -0.119942
     76 C24         3.9900    4.8300   -0.1090 c         1 MOL      0.620958
     77 O12         4.3430    4.8730    1.0980 o         1 MOL     -0.532770
     78 H34         7.0700    3.9720   -0.9360 hn        1 MOL      0.320568
     79 H35         4.6600    4.3590   -2.1590 h1        1 MOL      0.086020
     80 H36         5.5680    5.6760   -1.3480 h1        1 MOL      0.086020
     81 N9          2.8040    4.9650   -0.5590 n         1 MOL     -0.542324
     82 C25         1.5760    4.9720    0.2810 c3        1 MOL      0.030652
     83 C26         1.3040    3.6160    0.9420 c         1 MOL      0.614662
     84 O13         1.9730    2.6650    0.5570 o         1 MOL     -0.487517
     85 C27         0.4360    5.5730   -0.4620 c3        1 MOL     -0.170817
     86 C28         0.4120    6.9980   -0.8850 ca        1 MOL      0.122690
     87 C29        -0.0240    7.2670   -2.1910 ca        1 MOL     -0.158227
     88 C30         0.9930    7.9890   -0.0860 ca        1 MOL     -0.158227
     89 C31        -0.0080    8.5640   -2.6160 ca        1 MOL     -0.258146
     90 C32         1.0020    9.3060   -0.6210 ca        1 MOL     -0.258146
     91 C33         0.5260    9.6030   -1.8700 ca        1 MOL      0.344012
     92 O14         0.6520   10.8230   -2.4510 oh        1 MOL     -0.481833
     93 H37         2.6670    4.8660   -1.5560 hn        1 MOL      0.300142
     94 H38         1.7620    5.6500    1.1190 h1        1 MOL      0.086786
     95 H39        -0.4390    5.3650    0.1560 hc        1 MOL      0.047890
     96 H40         0.3950    4.8590   -1.2830 hc        1 MOL      0.047890
     97 H41        -0.2310    6.4850   -2.9050 ha        1 MOL      0.139635
     98 H42         1.4510    7.7990    0.8690 ha        1 MOL      0.139635
     99 H43        -0.3430    8.7860   -3.6220 ha        1 MOL      0.145678
    100 H44         1.5440   10.0850   -0.0900 ha        1 MOL      0.145678
    101 H45         1.0460   11.5020   -1.8980 ho        1 MOL      0.368941
    102 N10         0.3950    3.5520    1.9190 n         1 MOL     -0.517029
    103 C34         0.1000    2.3210    2.7040 c3        1 MOL     -0.013977
    104 C35        -0.2150    1.0130    1.9340 c         1 MOL      0.429402
    105 O15         0.6240    0.4820    1.1640 o         1 MOL     -0.523877
    106 C36         1.1600    2.1710    3.8140 c3        1 MOL      0.029515
    107 C37         0.6860    1.1330    4.8340 c3        1 MOL      0.241784
    108 C38         1.5830    3.4970    4.5400 c3        1 MOL     -0.116872
    109 C39         1.5630    0.9670    6.0700 c3        1 MOL     -0.378763
    110 H46        -0.1640    4.3370    2.2230 hn        1 MOL      0.342782
    111 H47        -0.8990    2.5190    3.0910 h1        1 MOL      0.060302
    112 H48         2.0940    1.9110    3.3100 hc        1 MOL      0.078841
    113 H49         0.3810    0.1530    4.4540 hc        1 MOL     -0.050662
    114 H50        -0.2930    1.5290    5.1060 hc        1 MOL     -0.050662
    115 H51         2.5280    3.3640    5.0540 hc        1 MOL      0.032410
    116 H52         1.6730    4.3700    3.8900 hc        1 MOL      0.032410
    117 H53         0.8530    3.8410    5.2840 hc        1 MOL      0.032410
    118 H54         1.5100    1.8730    6.6570 hc        1 MOL      0.099542
    119 H55         1.1140    0.1050    6.5780 hc        1 MOL      0.099542
    120 H56         2.6130    0.8290    5.7950 hc        1 MOL      0.099542
    121 N11        -1.4440    0.5060    2.0950 n         1 MOL     -0.474026
    122 C40        -1.8550   -0.8210    1.6040 c3        1 MOL      0.087430
    123 C41        -3.2470   -0.8800    0.9490 c         1 MOL      0.614207
    124 O16        -3.3810   -1.6330   -0.0730 o         1 MOL     -0.556025
    125 C42        -1.5800   -1.7760    2.7970 c3        1 MOL      0.091789
    126 O17        -2.6360   -1.5690    3.7040 oh        1 MOL     -0.636897
    127 H57        -2.0930    0.9690    2.7100 hn        1 MOL      0.301579
    128 H58        -1.1980   -1.1610    0.8060 h1        1 MOL      0.037782
    129 H59        -0.6250   -1.4680    3.2440 h1        1 MOL      0.088670
    130 H60        -1.7640   -2.7640    2.3810 h1        1 MOL      0.088670
    131 H61        -2.6930   -2.3390    4.2660 ho        1 MOL      0.426583
    132 N12        -4.2090   -0.0930    1.3940 n         1 MOL     -0.552470
    133 C43        -5.5230    0.1630    0.7730 c3        1 MOL      0.090115
    134 C44        -5.3770    0.7920   -0.6390 c         1 MOL      0.655993
    135 O18        -4.2640    1.2410   -0.9220 o         1 MOL     -0.585811
    136 C45        -6.3660    0.9620    1.7680 c3        1 MOL     -0.223904
    137 H62        -4.0090    0.4820    2.2090 hn        1 MOL      0.326930
    138 H63        -6.0780   -0.7610    0.6260 h1        1 MOL      0.117870
    139 H64        -6.1480    0.4630    2.7130 hc        1 MOL      0.076100
    140 H65        -6.0140    1.9930    1.8500 hc        1 MOL      0.076100
    141 H66        -7.4040    0.8680    1.4780 hc        1 MOL      0.076100
    142 N13        -6.3990    0.8120   -1.5190 n         1 MOL     -0.718997
    143 C46        -7.7130    0.1250   -1.4530 c3        1 MOL      0.565892
    144 C47        -8.8650    0.8140   -2.1800 c         1 MOL      0.283605
    145 O19        -8.7430    1.2400   -3.3070 o         1 MOL     -0.508192
    146 C48        -7.4600   -1.2940   -2.0160 c3        1 MOL     -0.123719
    147 H67        -6.2220    1.3140   -2.3770 hn        1 MOL      0.330470
    148 H68        -7.8230   -0.0750   -0.3950 h1        1 MOL     -0.111724
    149 H69        -6.6070   -1.7940   -1.5530 hc        1 MOL      0.033828
    150 H70        -8.3310   -1.8880   -1.7450 hc        1 MOL      0.033828
    151 H71        -7.3580   -1.2700   -3.1050 hc        1 MOL      0.033828
    152 N14       -10.1220    0.8150   -1.7170 n         1 MOL     -0.327003
    153 C49       -10.4980    0.3050   -0.3810 c3        1 MOL     -0.230937
    154 C50       -10.0330    1.1380    0.8780 c         1 MOL      0.522018
    155 O20        -9.5530    0.6240    1.9150 o         1 MOL     -0.499153
    156 C51       -11.9800    0.0880   -0.3360 c3        1 MOL     -0.068896
    157 C52       -12.6430   -0.7920   -1.4380 c3        1 MOL     -0.015084
    158 C53       -12.2250   -2.2220   -1.2750 c         1 MOL      0.758828
    159 O21       -11.8430   -2.8800   -2.2910 o         1 MOL     -0.691624
    160 O22       -12.3020   -2.6880   -0.1380 o         1 MOL     -0.691624
    161 H72       -10.8150    1.2580   -2.3130 hn        1 MOL      0.336951
    162 H73       -10.0800   -0.7010   -0.4020 h1        1 MOL      0.162529
    163 H74       -12.3400    1.0990   -0.5400 hc        1 MOL      0.048903
    164 H75       -12.2370   -0.2440    0.6750 hc        1 MOL      0.048903
    165 H76       -12.3450   -0.3950   -2.4030 hc        1 MOL     -0.035714
    166 H77       -13.7250   -0.8450   -1.3360 hc        1 MOL     -0.035714
    167 N15       -10.0760    2.4730    0.8730 n         1 MOL     -0.388675
    168 C54        -9.3230    3.2510    1.9420 c3        1 MOL     -0.183752
    169 H78        -9.2290    4.2920    1.6350 h1        1 MOL      0.102742
    170 H79        -9.8690    3.2000    2.8840 h1        1 MOL      0.102742
    171 H80        -8.3300    2.8210    2.0740 h1        1 MOL      0.102742
    172 H81       -10.6420    3.0230    0.2480 hn        1 MOL      0.287152
    173 Ca1         2.3030    0.5090   -0.8880 Ca        1 MOL      1.748118
    174 O23        -0.2890    1.0490   -1.7550 oh        1 MOL     -0.824535
    175 H82        -0.8760    1.6530   -1.3100 ho        1 MOL      0.420815
    176 H83        -0.8010    0.2440   -1.8740 ho        1 MOL      0.420815
    177 O24         2.2520    2.0010   -3.0040 oh        1 MOL     -0.824535
    178 H84         3.0370    1.8890   -3.5410 ho        1 MOL      0.420815
    179 H85         1.5340    2.0020   -3.6310 ho        1 MOL      0.420815
@<TRIPOS>BOND
     1    1    2 1   
     2    1    4 1   
     3    1    5 1   
     4    1    6 1   
     5    2    3 2   
     6    2    7 1   
     7    7    8 1   
     8    7   15 1   
     9    8    9 1   
    10    8   11 1   
    11    8   16 1   
    12    9   10 2   
    13    9   19 1   
    14   11   12 1   
    15   11   17 1   
    16   11   18 1   
    17   12   13 1   
    18   12   14 1   
    19   19   20 1   
    20   19   28 1   
    21   20   21 1   
    22   20   23 1   
    23   20   29 1   
    24   21   22 2   
    25   21   41 1   
    26   23   24 1   
    27   23   30 1   
    28   23   31 1   
    29   24   25 1   
    30   24   32 1   
    31   24   33 1   
    32   25   26 1   
    33   25   34 1   
    34   25   35 1   
    35   26   27 1   
    36   26   36 1   
    37   26   37 1   
    38   27   38 1   
    39   27   39 1   
    40   27   40 1   
    41   41   42 1   
    42   41   49 1   
    43   42   43 1   
    44   42   45 1   
    45   42   50 1   
    46   43   44 2   
    47   43   53 1   
    48   45   46 1   
    49   45   51 1   
    50   45   52 1   
    51   46   47 1   
    52   46   48 1   
    53   53   54 1   
    54   53   57 1   
    55   54   55 1   
    56   54   58 1   
    57   54   59 1   
    58   55   56 2   
    59   55   60 1   
    60   60   61 1   
    61   60   68 1   
    62   61   62 1   
    63   61   64 1   
    64   61   69 1   
    65   62   63 2   
    66   62   74 1   
    67   64   65 1   
    68   64   70 1   
    69   64   71 1   
    70   65   66 1   
    71   65   67 2   
    72   66   72 1   
    73   66   73 1   
    74   74   75 1   
    75   74   78 1   
    76   75   76 1   
    77   75   79 1   
    78   75   80 1   
    79   76   77 2   
    80   76   81 1   
    81   81   82 1   
    82   81   93 1   
    83   82   83 1   
    84   82   85 1   
    85   82   94 1   
    86   83   84 2   
    87   83  102 1   
    88   85   86 1   
    89   85   95 1   
    90   85   96 1   
    91   86   87 ar  
    92   86   88 ar  
    93   87   89 ar  
    94   87   97 1   
    95   88   90 ar  
    96   88   98 1   
    97   89   91 ar  
    98   89   99 1   
    99   90   91 ar  
   100   90  100 1   
   101   91   92 1   
   102   92  101 1   
   103  102  103 1   
   104  102  110 1   
   105  103  104 1   
   106  103  106 1   
   107  103  111 1   
   108  104  105 2   
   109  104  121 1   
   110  106  107 1   
   111  106  108 1   
   112  106  112 1   
   113  107  109 1   
   114  107  113 1   
   115  107  114 1   
   116  108  115 1   
   117  108  116 1   
   118  108  117 1   
   119  109  118 1   
   120  109  119 1   
   121  109  120 1   
   122  121  122 1   
   123  121  127 1   
   124  122  123 1   
   125  122  125 1   
   126  122  128 1   
   127  123  124 2   
   128  123  132 1   
   129  125  126 1   
   130  125  129 1   
   131  125  130 1   
   132  126  131 1   
   133  132  133 1   
   134  132  137 1   
   135  133  134 1   
   136  133  136 1   
   137  133  138 1   
   138  134  135 2   
   139  134  142 1   
   140  136  139 1   
   141  136  140 1   
   142  136  141 1   
   143  142  143 1   
   144  142  147 1   
   145  143  144 1   
   146  143  146 1   
   147  143  148 1   
   148  144  145 2   
   149  144  152 1   
   150  146  149 1   
   151  146  150 1   
   152  146  151 1   
   153  152  153 1   
   154  152  161 1   
   155  153  154 1   
   156  153  156 1   
   157  153  162 1   
   158  154  155 2   
   159  154  167 1   
   160  156  157 1   
   161  156  163 1   
   162  156  164 1   
   163  157  158 1   
   164  157  165 1   
   165  157  166 1   
   166  158  159 1   
   167  158  160 1   
   168  167  168 1   
   169  167  172 1   
   170  168  169 1   
   171  168  170 1   
   172  168  171 1   
   173  174  175 1   
   174  174  176 1   
   175  177  178 1   
   176  177  179 1   
@<TRIPOS>SUBSTRUCTURE
     1 MOL         1 TEMP              0 ****  ****    0 ROOT
