@<TRIPOS>MOLECULE
MOL
  195   189     1     0     0
SMALL
resp


@<TRIPOS>ATOM
      1 C1         -3.0170   -5.6530   -3.4960 c3        1 MOL     -0.417019
      2 C2         -3.7100   -5.0870   -2.2250 c         1 MOL      0.790591
      3 O1         -3.0210   -4.7110   -1.2580 o         1 MOL     -0.573570
      4 H1         -3.5590   -5.3220   -4.3820 hc        1 MOL      0.101017
      5 H2         -1.9900   -5.2910   -3.5420 hc        1 MOL      0.101017
      6 H3         -3.0180   -6.7420   -3.4560 hc        1 MOL      0.101017
      7 N1         -5.0170   -5.0340   -2.2060 n         1 MOL     -0.761153
      8 C3         -5.8440   -4.2300   -1.2710 c3        1 MOL      0.259087
      9 C4         -5.3830   -2.7350   -1.1970 c         1 MOL      0.230794
     10 O2         -4.9890   -2.0920   -0.1810 o         1 MOL     -0.433958
     11 C5         -6.0780   -4.9950    0.0030 c3        1 MOL     -0.015677
     12 C6         -4.8170   -5.4630    0.8380 c         1 MOL      0.804762
     13 O3         -4.1260   -4.6000    1.4620 o         1 MOL     -0.771454
     14 O4         -4.5930   -6.6650    1.0450 o         1 MOL     -0.771454
     15 H4         -5.5330   -5.4170   -2.9900 hn        1 MOL      0.348201
     16 H5         -6.8250   -4.1800   -1.7340 h1        1 MOL      0.044263
     17 H6         -6.6570   -5.8780   -0.2800 hc        1 MOL     -0.002841
     18 H7         -6.8120   -4.4530    0.6010 hc        1 MOL     -0.002841
     19 N2         -5.4960   -2.1220   -2.4120 n         1 MOL     -0.286451
     20 C7         -5.2410   -0.6760   -2.6160 c3        1 MOL     -0.007795
     21 C8         -6.3190    0.2050   -2.0020 c         1 MOL      0.486025
     22 O5         -7.2770    0.5700   -2.6800 o         1 MOL     -0.563006
     23 C9         -3.7670   -0.2250   -2.3950 c3        1 MOL      0.178853
     24 C10        -3.4710    1.1420   -2.9680 c3        1 MOL      0.275209
     25 C11        -2.7080   -1.2510   -2.9540 c3        1 MOL     -0.144934
     26 C12        -3.8020    1.4210   -4.4280 c3        1 MOL     -0.573892
     27 H8         -5.6570   -2.7080   -3.2200 hn        1 MOL      0.244267
     28 H9         -5.4600   -0.4460   -3.6590 h1        1 MOL      0.001514
     29 H10        -3.5250   -0.1410   -1.3420 hc        1 MOL     -0.082038
     30 H11        -2.4280    1.3960   -2.7610 hc        1 MOL     -0.032598
     31 H12        -4.0120    1.8620   -2.3530 hc        1 MOL     -0.032598
     32 H13        -2.7240   -2.2020   -2.4170 hc        1 MOL      0.007384
     33 H14        -2.7850   -1.4700   -4.0220 hc        1 MOL      0.007384
     34 H15        -1.7610   -0.7550   -2.7550 hc        1 MOL      0.007384
     35 H16        -4.8700    1.4740   -4.6620 hc        1 MOL      0.126632
     36 H17        -3.5570    2.4390   -4.7600 hc        1 MOL      0.126632
     37 H18        -3.2520    0.6650   -4.9970 hc        1 MOL      0.126632
     38 N3         -6.2660    0.4260   -0.7080 n         1 MOL     -0.276475
     39 C13        -7.3220    1.1310    0.0870 c3        1 MOL      0.088947
     40 C14        -7.4690    2.5970   -0.0210 c         1 MOL      0.512195
     41 O6         -8.4680    3.0680   -0.5750 o         1 MOL     -0.573243
     42 C15        -7.3440    0.6250    1.4960 c3        1 MOL     -0.144790
     43 C16        -7.4760   -0.9220    1.5680 c         1 MOL      0.569495
     44 O7         -7.9870   -1.6010    0.6060 o         1 MOL     -0.655603
     45 O8         -7.0510   -1.4530    2.6560 o         1 MOL     -0.655603
     46 H19        -5.5930   -0.1080   -0.1820 hn        1 MOL      0.304525
     47 H20        -8.2090    0.7010   -0.3750 h1        1 MOL      0.043851
     48 H21        -8.1730    1.0860    2.0240 hc        1 MOL      0.045839
     49 H22        -6.4190    0.9420    1.9760 hc        1 MOL      0.045839
     50 N4         -6.5230    3.4750    0.3450 n         1 MOL     -0.484498
     51 C17        -5.4190    3.2300    1.2140 c3        1 MOL      0.067856
     52 C18        -5.6700    3.4510    2.7000 c         1 MOL      0.656447
     53 O9         -6.7960    3.7430    3.1200 o         1 MOL     -0.574243
     54 H23        -6.8560    4.4280    0.3450 hn        1 MOL      0.289013
     55 H24        -4.6130    3.9020    0.9400 h1        1 MOL     -0.005539
     56 H25        -4.9510    2.2620    1.0610 h1        1 MOL     -0.005539
     57 N5         -4.6430    3.3910    3.5700 n         1 MOL     -0.751987
     58 C19        -3.1620    3.2500    3.3690 c3        1 MOL      0.415488
     59 C20        -2.8140    1.7470    3.0600 c         1 MOL      0.406487
     60 O10        -3.4930    0.8620    3.6190 o         1 MOL     -0.432652
     61 C21        -2.2990    3.6310    4.6530 c3        1 MOL     -0.501338
     62 C22        -2.8680    3.0420    6.0140 c         1 MOL      0.749703
     63 O11        -4.0530    3.2170    6.3210 o         1 MOL     -0.696508
     64 O12        -2.1370    2.3540    6.7750 o         1 MOL     -0.696508
     65 H26        -4.8180    3.3490    4.5710 hn        1 MOL      0.391250
     66 H27        -2.8270    3.9650    2.6200 h1        1 MOL     -0.039048
     67 H28        -2.3130    4.7210    4.7080 hc        1 MOL      0.087488
     68 H29        -1.2500    3.4420    4.4470 hc        1 MOL      0.087488
     69 N6         -1.8020    1.3320    2.2770 n         1 MOL     -0.389398
     70 C23        -0.8300    2.2310    1.6070 c3        1 MOL     -0.167350
     71 C24        -1.4050    2.7800    0.3090 c         1 MOL      0.646851
     72 O13        -2.5710    2.6580   -0.0020 o         1 MOL     -0.563663
     73 H30        -1.7270    0.3380    2.1390 hn        1 MOL      0.323493
     74 H31         0.0590    1.6950    1.2840 h1        1 MOL      0.087238
     75 H32        -0.5030    3.0820    2.1970 h1        1 MOL      0.087238
     76 N7         -0.5610    3.4480   -0.4050 n         1 MOL     -0.489085
     77 C25        -0.8700    4.2030   -1.6480 c3        1 MOL      0.470903
     78 C26        -0.0900    3.7980   -2.8680 c         1 MOL      0.425561
     79 O14         0.2970    4.6350   -3.7090 o         1 MOL     -0.576154
     80 C27        -0.8050    5.6860   -1.3180 c3        1 MOL     -0.219359
     81 C28        -1.7040    6.0180   -0.1160 c3        1 MOL     -0.076338
     82 C29        -1.6040    7.4920    0.2150 c         1 MOL      0.670798
     83 N8         -2.2380    7.9510    1.2760 n         1 MOL     -0.838491
     84 O15        -1.0250    8.3310   -0.5010 o         1 MOL     -0.577382
     85 H33         0.3840    3.3770   -0.0600 hn        1 MOL      0.241032
     86 H34        -1.8800    3.9760   -1.9740 h1        1 MOL     -0.003408
     87 H35        -1.0880    6.2660   -2.1880 hc        1 MOL      0.046405
     88 H36         0.2270    5.9160   -1.0380 hc        1 MOL      0.046405
     89 H37        -1.4060    5.4750    0.7810 hc        1 MOL      0.056038
     90 H38        -2.7430    5.7990   -0.3580 hc        1 MOL      0.056038
     91 H39        -2.7910    7.3120    1.8300 hn        1 MOL      0.375819
     92 H40        -2.0920    8.9040    1.5740 hn        1 MOL      0.375819
     93 N9          0.3530    2.5750   -3.1170 n         1 MOL     -0.372025
     94 C30         1.5450    2.2590   -3.9710 c3        1 MOL     -0.067647
     95 C31         2.7980    2.7070   -3.1670 c         1 MOL      0.572744
     96 O16         2.8150    2.2860   -2.0380 o         1 MOL     -0.488627
     97 C32         1.5950    0.7780   -4.4170 c3        1 MOL      0.320276
     98 C33         2.8140    0.5190   -5.2620 c3        1 MOL     -0.290151
     99 C34         0.3720    0.3150   -5.2610 c3        1 MOL     -0.290151
    100 H41         0.0310    1.8380   -2.5100 hn        1 MOL      0.201020
    101 H42         1.4800    2.7630   -4.9350 h1        1 MOL      0.080569
    102 H43         1.6930    0.2170   -3.4880 hc        1 MOL     -0.002933
    103 H44         3.0810    1.2960   -5.9870 hc        1 MOL      0.056334
    104 H45         3.6290    0.3220   -4.5610 hc        1 MOL      0.056334
    105 H46         2.7230   -0.4700   -5.7210 hc        1 MOL      0.056334
    106 H47         0.4730   -0.5710   -5.8890 hc        1 MOL      0.056334
    107 H48        -0.3950    0.0250   -4.5420 hc        1 MOL      0.056334
    108 H49         0.1440    1.1630   -5.9030 hc        1 MOL      0.056334
    109 N10         3.7360    3.4790   -3.7130 n         1 MOL     -0.503492
    110 C35         5.0140    3.9880   -3.0190 c3        1 MOL      0.130926
    111 C36         5.9910    3.0340   -2.2830 c         1 MOL      0.360053
    112 O17         7.1940    3.1520   -2.4750 o         1 MOL     -0.535780
    113 C37         4.4840    5.0870   -2.0010 c3        1 MOL     -0.439327
    114 C38         5.5580    5.7020   -1.2030 c         1 MOL      0.646071
    115 N11         6.5520    6.2400   -1.7730 n         1 MOL     -0.701946
    116 O18         5.6310    5.5700    0.0170 o         1 MOL     -0.566745
    117 H50         3.5210    3.9380   -4.5850 hn        1 MOL      0.319362
    118 H51         5.5950    4.5040   -3.7970 h1        1 MOL      0.055962
    119 H52         3.7820    4.5880   -1.3380 hc        1 MOL      0.157593
    120 H53         3.9370    5.8670   -2.5310 hc        1 MOL      0.157593
    121 H54         6.6290    6.3220   -2.7820 hn        1 MOL      0.338888
    122 H55         7.2810    6.6850   -1.2310 hn        1 MOL      0.338888
    123 N12         5.5890    2.1460   -1.3790 n         1 MOL     -0.099829
    124 C39         6.4210    1.2370   -0.5530 c3        1 MOL     -0.073853
    125 C40         5.7390   -0.0950   -0.1160 c         1 MOL      0.387296
    126 O19         4.6520   -0.1460    0.4710 o         1 MOL     -0.429677
    127 C41         6.8770    1.9710    0.7250 c3        1 MOL      0.003740
    128 C42         7.6280    1.1680    1.7510 ca        1 MOL     -0.037342
    129 C43         7.0880    1.0340    3.0370 ca        1 MOL     -0.160047
    130 C44         8.8970    0.5960    1.4690 ca        1 MOL     -0.160047
    131 C45         7.8670    0.4850    4.1170 ca        1 MOL     -0.288405
    132 C46         9.5280   -0.1830    2.4630 ca        1 MOL     -0.288405
    133 C47         9.0560   -0.2200    3.7610 ca        1 MOL      0.346579
    134 O20         9.8080   -0.7800    4.6770 oh        1 MOL     -0.497364
    135 H56         4.5830    2.0850   -1.2960 hn        1 MOL      0.129142
    136 H57         7.3020    1.0930   -1.1920 h1        1 MOL      0.069017
    137 H58         6.0850    2.4920    1.2600 hc        1 MOL      0.076312
    138 H59         7.6300    2.6830    0.3960 hc        1 MOL      0.076312
    139 H60         6.0990    1.4210    3.2620 ha        1 MOL      0.136510
    140 H61         9.2810    0.6820    0.4690 ha        1 MOL      0.136510
    141 H62         7.5160    0.5080    5.1380 ha        1 MOL      0.153773
    142 H63        10.4290   -0.7410    2.2230 ha        1 MOL      0.153773
    143 H64         9.5370   -0.6010    5.5800 ho        1 MOL      0.407742
    144 N13         6.5150   -1.1350   -0.0930 n         1 MOL     -0.412846
    145 C48         6.1990   -2.4660    0.5420 c3        1 MOL      0.351602
    146 C49         4.8900   -3.1830    0.0880 c         1 MOL      0.347767
    147 O21         4.2220   -3.8340    0.8590 o         1 MOL     -0.377738
    148 C50         6.4010   -2.4010    2.0970 c3        1 MOL     -0.248202
    149 C51         6.8170   -3.8000    2.5670 c3        1 MOL     -0.206606
    150 C52         7.3580   -3.7210    4.0290 c         1 MOL      0.801747
    151 O22         6.6290   -3.8530    5.0390 o         1 MOL     -0.755757
    152 O23         8.5830   -3.7390    4.1960 o         1 MOL     -0.755757
    153 H65         7.4420   -1.0840   -0.5090 hn        1 MOL      0.240678
    154 H66         7.0240   -3.0930    0.1830 h1        1 MOL     -0.003944
    155 H67         5.4620   -2.0300    2.5170 hc        1 MOL      0.111341
    156 H68         7.2100   -1.7460    2.4490 hc        1 MOL      0.111341
    157 H69         7.6550   -4.1580    1.9680 hc        1 MOL      0.008076
    158 H70         6.0110   -4.5200    2.4750 hc        1 MOL      0.008076
    159 N14         4.4910   -2.9540   -1.1880 n         1 MOL     -0.482500
    160 C53         3.2220   -3.5430   -1.7350 c3        1 MOL     -0.001555
    161 C54         3.4930   -4.5390   -2.8910 c         1 MOL      0.384747
    162 O24         2.5770   -5.2990   -3.3030 o         1 MOL     -0.507548
    163 C55         2.4200   -2.3910   -2.3440 c3        1 MOL      0.107218
    164 C56         0.9540   -2.7900   -2.5520 c3        1 MOL     -0.080356
    165 C57         0.1270   -3.0930   -1.2580 c         1 MOL      0.748137
    166 O25        -0.0130   -4.2480   -0.7540 o         1 MOL     -0.742398
    167 O26        -0.5590   -2.2090   -0.6940 o         1 MOL     -0.742398
    168 H71         5.0860   -2.3390   -1.7260 hn        1 MOL      0.215582
    169 H72         2.5940   -4.0330   -0.9960 h1        1 MOL      0.145124
    170 H73         2.7830   -2.0800   -3.3190 hc        1 MOL     -0.020287
    171 H74         2.4540   -1.5130   -1.6890 hc        1 MOL     -0.020287
    172 H75         0.8010   -3.6140   -3.2500 hc        1 MOL      0.038661
    173 H76         0.5230   -1.9240   -3.0580 hc        1 MOL      0.038661
    174 N15         4.7480   -4.5890   -3.3670 n         1 MOL     -0.221009
    175 C58         5.2400   -5.5010   -4.4520 c3        1 MOL     -0.159040
    176 H77         5.1580   -4.9970   -5.4150 h1        1 MOL      0.084872
    177 H78         6.2830   -5.7590   -4.2660 h1        1 MOL      0.084872
    178 H79         4.6370   -6.4090   -4.4650 h1        1 MOL      0.084872
    179 H80         5.3860   -3.9840   -2.8780 hn        1 MOL      0.199929
    180 Ca1        -1.8240   -3.6030    1.0900 Ca        1 MOL      1.806037
    181 O27        -3.3810   -1.5400    2.0990 oh        1 MOL     -0.847718
    182 H81        -4.2190   -1.5030    1.6410 ho        1 MOL      0.408388
    183 H82        -3.4200   -0.8200    2.7320 ho        1 MOL      0.408388
    184 O28         0.1630   -4.5690    2.6250 oh        1 MOL     -0.847718
    185 H83         1.0190   -5.0000    2.6400 ho        1 MOL      0.408388
    186 H84         0.0330   -4.2600    3.5250 ho        1 MOL      0.408388
    187 O29        -2.1530   -3.4510    3.6550 oh        1 MOL     -0.847718
    188 H85        -2.8870   -2.9440    4.0200 ho        1 MOL      0.408388
    189 H86        -1.5940   -3.6430    4.4140 ho        1 MOL      0.408388
    190 O30        -0.2970   -1.5620    2.3830 oh        1 MOL     -0.847718
    191 H87         0.5830   -1.4060    2.0600 ho        1 MOL      0.408388
    192 H88        -0.2390   -1.3620    3.3200 ho        1 MOL      0.408388
    193 O31        -1.9680   -6.4530    1.3590 oh        1 MOL     -0.847718
    194 H89        -1.9800   -6.7330    2.2770 ho        1 MOL      0.408388
    195 H90        -2.8600   -6.6440    1.0440 ho        1 MOL      0.408388
@<TRIPOS>BOND
     1    1    2 1   
     2    1    4 1   
     3    1    5 1   
     4    1    6 1   
     5    2    3 2   
     6    2    7 1   
     7    7    8 1   
     8    7   15 1   
     9    8    9 1   
    10    8   11 1   
    11    8   16 1   
    12    9   10 2   
    13    9   19 1   
    14   11   12 1   
    15   11   17 1   
    16   11   18 1   
    17   12   13 1   
    18   12   14 1   
    19   19   20 1   
    20   19   27 1   
    21   20   21 1   
    22   20   23 1   
    23   20   28 1   
    24   21   22 2   
    25   21   38 1   
    26   23   24 1   
    27   23   25 1   
    28   23   29 1   
    29   24   26 1   
    30   24   30 1   
    31   24   31 1   
    32   25   32 1   
    33   25   33 1   
    34   25   34 1   
    35   26   35 1   
    36   26   36 1   
    37   26   37 1   
    38   38   39 1   
    39   38   46 1   
    40   39   40 1   
    41   39   42 1   
    42   39   47 1   
    43   40   41 2   
    44   40   50 1   
    45   42   43 1   
    46   42   48 1   
    47   42   49 1   
    48   43   44 1   
    49   43   45 1   
    50   50   51 1   
    51   50   54 1   
    52   51   52 1   
    53   51   55 1   
    54   51   56 1   
    55   52   53 2   
    56   52   57 1   
    57   57   58 1   
    58   57   65 1   
    59   58   59 1   
    60   58   61 1   
    61   58   66 1   
    62   59   60 2   
    63   59   69 1   
    64   61   62 1   
    65   61   67 1   
    66   61   68 1   
    67   62   63 1   
    68   62   64 1   
    69   69   70 1   
    70   69   73 1   
    71   70   71 1   
    72   70   74 1   
    73   70   75 1   
    74   71   72 2   
    75   71   76 1   
    76   76   77 1   
    77   76   85 1   
    78   77   78 1   
    79   77   80 1   
    80   77   86 1   
    81   78   79 2   
    82   78   93 1   
    83   80   81 1   
    84   80   87 1   
    85   80   88 1   
    86   81   82 1   
    87   81   89 1   
    88   81   90 1   
    89   82   83 1   
    90   82   84 2   
    91   83   91 1   
    92   83   92 1   
    93   93   94 1   
    94   93  100 1   
    95   94   95 1   
    96   94   97 1   
    97   94  101 1   
    98   95   96 2   
    99   95  109 1   
   100   97   98 1   
   101   97   99 1   
   102   97  102 1   
   103   98  103 1   
   104   98  104 1   
   105   98  105 1   
   106   99  106 1   
   107   99  107 1   
   108   99  108 1   
   109  109  110 1   
   110  109  117 1   
   111  110  111 1   
   112  110  113 1   
   113  110  118 1   
   114  111  112 2   
   115  111  123 1   
   116  113  114 1   
   117  113  119 1   
   118  113  120 1   
   119  114  115 1   
   120  114  116 2   
   121  115  121 1   
   122  115  122 1   
   123  123  124 1   
   124  123  135 1   
   125  124  125 1   
   126  124  127 1   
   127  124  136 1   
   128  125  126 2   
   129  125  144 1   
   130  127  128 1   
   131  127  137 1   
   132  127  138 1   
   133  128  129 ar  
   134  128  130 ar  
   135  129  131 ar  
   136  129  139 1   
   137  130  132 ar  
   138  130  140 1   
   139  131  133 ar  
   140  131  141 1   
   141  132  133 ar  
   142  132  142 1   
   143  133  134 1   
   144  134  143 1   
   145  144  145 1   
   146  144  153 1   
   147  145  146 1   
   148  145  148 1   
   149  145  154 1   
   150  146  147 2   
   151  146  159 1   
   152  148  149 1   
   153  148  155 1   
   154  148  156 1   
   155  149  150 1   
   156  149  157 1   
   157  149  158 1   
   158  150  151 1   
   159  150  152 1   
   160  159  160 1   
   161  159  168 1   
   162  160  161 1   
   163  160  163 1   
   164  160  169 1   
   165  161  162 2   
   166  161  174 1   
   167  163  164 1   
   168  163  170 1   
   169  163  171 1   
   170  164  165 1   
   171  164  172 1   
   172  164  173 1   
   173  165  166 1   
   174  165  167 1   
   175  174  175 1   
   176  174  179 1   
   177  175  176 1   
   178  175  177 1   
   179  175  178 1   
   180  181  182 1   
   181  181  183 1   
   182  184  185 1   
   183  184  186 1   
   184  187  188 1   
   185  187  189 1   
   186  190  191 1   
   187  190  192 1   
   188  193  194 1   
   189  193  195 1   
@<TRIPOS>SUBSTRUCTURE
     1 MOL         1 TEMP              0 ****  ****    0 ROOT
