@<TRIPOS>MOLECULE
MOL
  192   187     1     0     0
SMALL
resp


@<TRIPOS>ATOM
      1 C1          4.0220   -2.4470   -2.9150 c3        1 MOL     -0.454314
      2 C2          3.2380   -2.9720   -1.7580 c         1 MOL      0.728636
      3 O1          2.2690   -2.3180   -1.3930 o         1 MOL     -0.515870
      4 H1          4.9690   -2.9810   -2.9840 hc        1 MOL      0.119352
      5 H2          3.4550   -2.5930   -3.8350 hc        1 MOL      0.119352
      6 H3          4.2140   -1.3840   -2.7710 hc        1 MOL      0.119352
      7 N1          3.5330   -4.2010   -1.2000 n         1 MOL     -0.422409
      8 C3          2.7470   -4.8740   -0.1250 c3        1 MOL     -0.044971
      9 C4          1.2110   -4.8520   -0.2830 c         1 MOL      0.732240
     10 O2          0.4730   -4.7300    0.7140 o         1 MOL     -0.550274
     11 C5          3.1040   -4.5220    1.3040 c3        1 MOL     -0.115990
     12 C6          4.6600   -4.4750    1.4520 c         1 MOL      0.590533
     13 O3          5.4220   -5.1980    0.7710 o         1 MOL     -0.674368
     14 O4          5.1630   -3.6920    2.2750 o         1 MOL     -0.674368
     15 H4          4.3890   -4.6750   -1.4230 hn        1 MOL      0.207727
     16 H5          2.9090   -5.9600   -0.0670 h1        1 MOL      0.069128
     17 H6          2.7210   -5.3600    1.8910 hc        1 MOL      0.063783
     18 H7          2.5390   -3.6350    1.6050 hc        1 MOL      0.063783
     19 N2          0.8030   -4.9550   -1.5300 n         1 MOL     -0.544116
     20 C7         -0.5520   -5.1800   -1.9630 c3        1 MOL     -0.199626
     21 C8         -1.2660   -6.3910   -1.3380 c         1 MOL      0.563388
     22 O5         -0.7720   -7.4990   -1.1740 o         1 MOL     -0.577418
     23 C9         -0.7310   -5.2270   -3.4930 c3        1 MOL      0.274486
     24 C10        -0.0360   -6.4020   -4.1500 c3        1 MOL      0.077312
     25 C11        -0.2740   -3.8770   -4.0510 c3        1 MOL     -0.159072
     26 C12        -0.3520   -6.5730   -5.6120 c3        1 MOL     -0.378807
     27 H8          1.5140   -5.0070   -2.2500 hn        1 MOL      0.255944
     28 H9         -1.0780   -4.2560   -1.7120 h1        1 MOL      0.212932
     29 H10        -1.8020   -5.2150   -3.7010 hc        1 MOL     -0.002548
     30 H11        -0.5470   -7.2250   -3.6490 hc        1 MOL     -0.004796
     31 H12         1.0110   -6.4940   -3.8540 hc        1 MOL     -0.004796
     32 H13        -0.5580   -3.8610   -5.1030 hc        1 MOL      0.023715
     33 H14        -0.8920   -3.0960   -3.5960 hc        1 MOL      0.023715
     34 H15         0.7680   -3.6580   -3.8210 hc        1 MOL      0.023715
     35 H16         0.0180   -7.5310   -5.9830 hc        1 MOL      0.085645
     36 H17        -1.4330   -6.6620   -5.6590 hc        1 MOL      0.085645
     37 H18        -0.0160   -5.6890   -6.1560 hc        1 MOL      0.085645
     38 N3         -2.5680   -6.2810   -0.8740 n         1 MOL     -0.544323
     39 C13        -3.3240   -5.0510   -0.5340 c3        1 MOL      0.035340
     40 C14        -4.3530   -5.3320    0.5930 c         1 MOL      0.441129
     41 O6         -5.4580   -5.8550    0.3330 o         1 MOL     -0.480517
     42 C15        -4.1290   -4.6660   -1.8460 c3        1 MOL     -0.435063
     43 C16        -4.9340   -3.4000   -1.6570 c         1 MOL      0.764317
     44 O7         -5.8900   -3.1550   -2.4520 o         1 MOL     -0.696826
     45 O8         -4.6250   -2.5690   -0.7150 o         1 MOL     -0.696826
     46 H19        -3.0120   -7.1810   -0.7140 hn        1 MOL      0.335122
     47 H20        -2.6420   -4.2440   -0.2470 h1        1 MOL      0.085906
     48 H21        -4.7640   -5.5160   -2.0970 hc        1 MOL      0.114444
     49 H22        -3.4180   -4.5370   -2.6630 hc        1 MOL      0.114444
     50 N4         -3.8920   -5.0430    1.8020 n         1 MOL     -0.316618
     51 C17        -4.7220   -5.1810    3.0150 c3        1 MOL     -0.200183
     52 C18        -5.7180   -4.1020    3.3190 c         1 MOL      0.674553
     53 O9         -6.4940   -4.2810    4.2680 o         1 MOL     -0.617834
     54 H23        -2.9180   -4.8070    1.8980 hn        1 MOL      0.306727
     55 H24        -4.1420   -5.4000    3.9190 h1        1 MOL      0.090121
     56 H25        -5.3200   -6.0550    2.7550 h1        1 MOL      0.090121
     57 N5         -5.6150   -2.9420    2.6470 n         1 MOL     -0.475381
     58 C19        -6.1130   -1.6610    3.1530 c3        1 MOL      0.265095
     59 C20        -7.1750   -1.1230    2.1810 c         1 MOL      0.364489
     60 O10        -8.2280   -0.6280    2.6150 o         1 MOL     -0.589815
     61 C21        -5.0270   -0.6010    3.5340 c3        1 MOL     -0.418694
     62 C22        -4.0950   -0.4970    2.3450 c         1 MOL      0.770992
     63 O11        -3.0600   -1.2080    2.3130 o         1 MOL     -0.715897
     64 O12        -4.4700    0.1700    1.3970 o         1 MOL     -0.715897
     65 H26        -4.8720   -2.8430    1.9640 hn        1 MOL      0.253232
     66 H27        -6.6690   -1.8130    4.0750 h1        1 MOL      0.030022
     67 H28        -4.3920   -1.0010    4.3300 hc        1 MOL      0.081719
     68 H29        -5.3310    0.4040    3.8310 hc        1 MOL      0.081719
     69 N6         -6.9640   -1.1980    0.8380 n         1 MOL     -0.171462
     70 C23        -7.9000   -0.6620   -0.1420 c3        1 MOL     -0.225803
     71 C24        -7.8530    0.8530   -0.1710 c         1 MOL      0.654263
     72 O13        -8.5570    1.3240   -1.0120 o         1 MOL     -0.611689
     73 H30        -6.1140   -1.6350    0.5140 hn        1 MOL      0.230942
     74 H31        -8.9290   -0.9810    0.0310 h1        1 MOL      0.116757
     75 H32        -7.5140   -0.9680   -1.1220 h1        1 MOL      0.116757
     76 N7         -7.0040    1.5380    0.6230 n         1 MOL     -0.338123
     77 C25        -6.9250    3.0260    0.5480 c3        1 MOL      0.065972
     78 C26        -6.4230    3.6790   -0.7320 c         1 MOL      0.417174
     79 O14        -6.7830    4.8910   -0.9860 o         1 MOL     -0.535422
     80 C27        -8.0580    3.7300    1.3530 c3        1 MOL      0.016339
     81 C28        -7.9450    3.6200    2.8540 c3        1 MOL     -0.170283
     82 C29        -7.3720    4.7410    3.7170 c         1 MOL      0.711401
     83 N8         -7.3500    4.5690    5.0370 n         1 MOL     -0.882063
     84 O15        -6.9120    5.7630    3.2680 o         1 MOL     -0.556726
     85 H33        -6.3020    1.0080    1.1260 hn        1 MOL      0.253614
     86 H34        -6.0530    3.2780    1.1660 h1        1 MOL      0.080146
     87 H35        -8.9970    3.2970    0.9860 hc        1 MOL      0.006776
     88 H36        -7.9790    4.8030    1.1420 hc        1 MOL      0.006776
     89 H37        -7.4000    2.7070    3.0800 hc        1 MOL      0.040886
     90 H38        -8.9590    3.5030    3.2480 hc        1 MOL      0.040886
     91 H39        -7.7430    3.7440    5.4510 hn        1 MOL      0.369488
     92 H40        -6.7670    5.2200    5.5560 hn        1 MOL      0.369488
     93 N9         -5.6950    2.9700   -1.6270 n         1 MOL     -0.255441
     94 C30        -5.1650    3.5350   -2.8970 c3        1 MOL     -0.115544
     95 C31        -3.6560    3.2970   -3.0420 c         1 MOL      0.524328
     96 O16        -3.0180    3.7010   -4.0100 o         1 MOL     -0.589733
     97 C32        -5.8490    2.9740   -4.1270 c3        1 MOL      0.251351
     98 C33        -5.7600    1.3890   -4.2050 c3        1 MOL     -0.359580
     99 C34        -7.2910    3.4500   -4.2180 c3        1 MOL     -0.359580
    100 H41        -5.5910    2.0080   -1.3400 hn        1 MOL      0.221728
    101 H42        -5.2740    4.6130   -2.7880 h1        1 MOL      0.121805
    102 H43        -5.4040    3.4630   -4.9970 hc        1 MOL     -0.012298
    103 H44        -6.1390    0.9530   -5.1230 hc        1 MOL      0.089283
    104 H45        -4.7060    1.0940   -4.2120 hc        1 MOL      0.089283
    105 H46        -6.3000    0.8400   -3.4240 hc        1 MOL      0.089283
    106 H47        -7.9260    3.1330   -3.3840 hc        1 MOL      0.089283
    107 H48        -7.3350    4.5440   -4.1550 hc        1 MOL      0.089283
    108 H49        -7.7110    3.1570   -5.1690 hc        1 MOL      0.089283
    109 N10        -2.9340    2.7910   -2.0470 n         1 MOL     -0.388025
    110 C35        -1.4760    2.4000   -2.1170 c3        1 MOL      0.290354
    111 C36        -0.7940    3.0450   -0.9360 c         1 MOL      0.425041
    112 O17        -1.4360    3.4640    0.0670 o         1 MOL     -0.528150
    113 C37        -1.4950    0.8480   -1.9330 c3        1 MOL     -0.343435
    114 C38        -0.1530    0.2220   -2.2280 c         1 MOL      0.630271
    115 N11         0.0220   -0.9710   -1.7760 n         1 MOL     -0.610651
    116 O18         0.7290    0.8260   -2.7860 o         1 MOL     -0.590889
    117 H50        -3.3230    2.7650   -1.1160 hn        1 MOL      0.200934
    118 H51        -0.9630    2.7720   -3.0070 h1        1 MOL      0.037084
    119 H52        -2.3090    0.4870   -2.5650 hc        1 MOL      0.139182
    120 H53        -1.7360    0.6490   -0.8950 hc        1 MOL      0.139182
    121 H54        -0.6280   -1.3120   -1.0810 hn        1 MOL      0.305949
    122 H55         0.9720   -1.3020   -1.7150 hn        1 MOL      0.305949
    123 N12         0.5180    2.9220   -0.9690 n         1 MOL     -0.466467
    124 C39         1.3350    3.3190    0.1440 c3        1 MOL      0.163876
    125 C40         2.7000    3.6810   -0.4150 c         1 MOL      0.575472
    126 O19         3.1730    3.0910   -1.4150 o         1 MOL     -0.551021
    127 C41         1.4240    2.0900    1.0690 c3        1 MOL     -0.085422
    128 C42         1.9730    2.5440    2.4460 ca        1 MOL      0.062016
    129 C43         3.3670    2.6160    2.5960 ca        1 MOL     -0.204448
    130 C44         1.0850    2.9360    3.4370 ca        1 MOL     -0.204448
    131 C45         3.9000    3.1790    3.7940 ca        1 MOL     -0.219342
    132 C46         1.6240    3.5140    4.6210 ca        1 MOL     -0.219342
    133 C47         3.0440    3.5780    4.7900 ca        1 MOL      0.283283
    134 O20         3.5320    4.1680    5.8580 oh        1 MOL     -0.506542
    135 H56         0.8950    2.3330   -1.7050 hn        1 MOL      0.258464
    136 H57         0.9000    4.1200    0.7310 h1        1 MOL      0.055320
    137 H58         2.0340    1.3180    0.6060 hc        1 MOL      0.070727
    138 H59         0.4590    1.6090    1.2350 hc        1 MOL      0.070727
    139 H60         3.9360    2.3170    1.7190 ha        1 MOL      0.182338
    140 H61         0.0070    2.9580    3.3560 ha        1 MOL      0.182338
    141 H62         4.9280    3.4950    3.8150 ha        1 MOL      0.134562
    142 H63         1.0440    3.8390    5.4760 ha        1 MOL      0.134562
    143 H64         4.4810    4.0640    6.0230 ho        1 MOL      0.370548
    144 N13         3.4000    4.6570    0.1500 n         1 MOL     -0.544357
    145 C48         4.6640    5.1390   -0.3090 c3        1 MOL     -0.057832
    146 C49         5.8040    4.7400    0.7220 c         1 MOL      0.771854
    147 O21         6.1700    5.4860    1.6290 o         1 MOL     -0.595576
    148 C50         4.6980    6.5860   -0.4930 c3        1 MOL      0.106753
    149 C51         3.7270    7.0520   -1.6230 c3        1 MOL     -0.300262
    150 C52         3.7660    8.5860   -1.8320 c         1 MOL      0.704013
    151 O22         4.3490    9.1160   -2.8430 o         1 MOL     -0.688212
    152 O23         3.2040    9.3080   -0.9740 o         1 MOL     -0.688212
    153 H65         3.0080    5.0530    0.9950 hn        1 MOL      0.337076
    154 H66         4.9450    4.7190   -1.2740 h1        1 MOL      0.175522
    155 H67         5.7210    6.7980   -0.7970 hc        1 MOL      0.001642
    156 H68         4.5730    7.2280    0.3800 hc        1 MOL      0.001642
    157 H69         2.7670    6.8290   -1.1500 hc        1 MOL      0.057729
    158 H70         3.8550    6.4160   -2.5020 hc        1 MOL      0.057729
    159 N14         6.4240    3.5560    0.6470 n         1 MOL     -0.871998
    160 C53         6.3270    2.5650   -0.4350 c3        1 MOL     -0.077011
    161 C54         6.8400    3.1460   -1.7720 c         1 MOL      0.671355
    162 O24         7.8310    3.9200   -1.8280 o         1 MOL     -0.554769
    163 C55         7.1190    1.3070   -0.0870 c3        1 MOL      0.017320
    164 C56         7.0570    0.2120   -1.1580 c3        1 MOL      0.011280
    165 C57         7.1620   -1.1060   -0.4110 c         1 MOL      0.535165
    166 O25         8.2600   -1.5210   -0.0400 o         1 MOL     -0.710647
    167 O26         6.2230   -1.8020   -0.0360 o         1 MOL     -0.710647
    168 H71         7.2720    3.5050    1.1900 hn        1 MOL      0.401478
    169 H72         5.3040    2.2440   -0.6270 h1        1 MOL      0.086687
    170 H73         6.6870    0.8920    0.8220 hc        1 MOL      0.061679
    171 H74         8.1560    1.5960    0.0920 hc        1 MOL      0.061679
    172 H75         7.8860    0.3620   -1.8400 hc        1 MOL     -0.019933
    173 H76         6.0930    0.2520   -1.6560 hc        1 MOL     -0.019933
    174 N15         6.1440    2.8140   -2.8850 n         1 MOL     -0.403053
    175 C58         6.3980    3.2630   -4.2470 c3        1 MOL     -0.210450
    176 H77         6.2610    4.3430   -4.3050 h1        1 MOL      0.098641
    177 H78         7.4200    3.0110   -4.5280 h1        1 MOL      0.098641
    178 H79         5.7010    2.7720   -4.9270 h1        1 MOL      0.098641
    179 H80         5.3300    2.2410   -2.7670 hn        1 MOL      0.323491
    180 Ca1         7.4760   -3.6210    1.3460 Ca        1 MOL      1.699333
    181 O27         9.9940   -3.0890    1.9880 oh        1 MOL     -0.827223
    182 H81        10.1060   -3.1870    2.9370 ho        1 MOL      0.389463
    183 H82        10.5270   -2.3310    1.7620 ho        1 MOL      0.389463
    184 O28         7.1190   -1.3080    2.9200 oh        1 MOL     -0.827223
    185 H83         6.1950   -1.3430    3.1510 ho        1 MOL      0.389463
    186 H84         7.4100   -0.4500    3.2430 ho        1 MOL      0.389463
    187 O29         8.6050   -5.9860    1.8670 oh        1 MOL     -0.827223
    188 H85         8.5850   -6.8980    1.5880 ho        1 MOL      0.389463
    189 H86         9.2310   -5.9780    2.5890 ho        1 MOL      0.389463
    190 O30         7.7830   -3.8420    3.9110 oh        1 MOL     -0.827223
    191 H87         8.1350   -4.3930    4.6060 ho        1 MOL      0.389463
    192 H88         8.0540   -2.9530    4.1520 ho        1 MOL      0.389463
@<TRIPOS>BOND
     1    1    2 1   
     2    1    4 1   
     3    1    5 1   
     4    1    6 1   
     5    2    3 2   
     6    2    7 1   
     7    7    8 1   
     8    7   15 1   
     9    8    9 1   
    10    8   11 1   
    11    8   16 1   
    12    9   10 2   
    13    9   19 1   
    14   11   12 1   
    15   11   17 1   
    16   11   18 1   
    17   12   13 1   
    18   12   14 1   
    19   19   20 1   
    20   19   27 1   
    21   20   21 1   
    22   20   23 1   
    23   20   28 1   
    24   21   22 2   
    25   21   38 1   
    26   23   24 1   
    27   23   25 1   
    28   23   29 1   
    29   24   26 1   
    30   24   30 1   
    31   24   31 1   
    32   25   32 1   
    33   25   33 1   
    34   25   34 1   
    35   26   35 1   
    36   26   36 1   
    37   26   37 1   
    38   38   39 1   
    39   38   46 1   
    40   39   40 1   
    41   39   42 1   
    42   39   47 1   
    43   40   41 2   
    44   40   50 1   
    45   42   43 1   
    46   42   48 1   
    47   42   49 1   
    48   43   44 1   
    49   43   45 1   
    50   50   51 1   
    51   50   54 1   
    52   51   52 1   
    53   51   55 1   
    54   51   56 1   
    55   52   53 2   
    56   52   57 1   
    57   57   58 1   
    58   57   65 1   
    59   58   59 1   
    60   58   61 1   
    61   58   66 1   
    62   59   60 2   
    63   59   69 1   
    64   61   62 1   
    65   61   67 1   
    66   61   68 1   
    67   62   63 1   
    68   62   64 1   
    69   69   70 1   
    70   69   73 1   
    71   70   71 1   
    72   70   74 1   
    73   70   75 1   
    74   71   72 2   
    75   71   76 1   
    76   76   77 1   
    77   76   85 1   
    78   77   78 1   
    79   77   80 1   
    80   77   86 1   
    81   78   79 2   
    82   78   93 1   
    83   80   81 1   
    84   80   87 1   
    85   80   88 1   
    86   81   82 1   
    87   81   89 1   
    88   81   90 1   
    89   82   83 1   
    90   82   84 2   
    91   83   91 1   
    92   83   92 1   
    93   93   94 1   
    94   93  100 1   
    95   94   95 1   
    96   94   97 1   
    97   94  101 1   
    98   95   96 2   
    99   95  109 1   
   100   97   98 1   
   101   97   99 1   
   102   97  102 1   
   103   98  103 1   
   104   98  104 1   
   105   98  105 1   
   106   99  106 1   
   107   99  107 1   
   108   99  108 1   
   109  109  110 1   
   110  109  117 1   
   111  110  111 1   
   112  110  113 1   
   113  110  118 1   
   114  111  112 2   
   115  111  123 1   
   116  113  114 1   
   117  113  119 1   
   118  113  120 1   
   119  114  115 1   
   120  114  116 2   
   121  115  121 1   
   122  115  122 1   
   123  123  124 1   
   124  123  135 1   
   125  124  125 1   
   126  124  127 1   
   127  124  136 1   
   128  125  126 2   
   129  125  144 1   
   130  127  128 1   
   131  127  137 1   
   132  127  138 1   
   133  128  129 ar  
   134  128  130 ar  
   135  129  131 ar  
   136  129  139 1   
   137  130  132 ar  
   138  130  140 1   
   139  131  133 ar  
   140  131  141 1   
   141  132  133 ar  
   142  132  142 1   
   143  133  134 1   
   144  134  143 1   
   145  144  145 1   
   146  144  153 1   
   147  145  146 1   
   148  145  148 1   
   149  145  154 1   
   150  146  147 2   
   151  146  159 1   
   152  148  149 1   
   153  148  155 1   
   154  148  156 1   
   155  149  150 1   
   156  149  157 1   
   157  149  158 1   
   158  150  151 1   
   159  150  152 1   
   160  159  160 1   
   161  159  168 1   
   162  160  161 1   
   163  160  163 1   
   164  160  169 1   
   165  161  162 2   
   166  161  174 1   
   167  163  164 1   
   168  163  170 1   
   169  163  171 1   
   170  164  165 1   
   171  164  172 1   
   172  164  173 1   
   173  165  166 1   
   174  165  167 1   
   175  174  175 1   
   176  174  179 1   
   177  175  176 1   
   178  175  177 1   
   179  175  178 1   
   180  181  182 1   
   181  181  183 1   
   182  184  185 1   
   183  184  186 1   
   184  187  188 1   
   185  187  189 1   
   186  190  191 1   
   187  190  192 1   
@<TRIPOS>SUBSTRUCTURE
     1 MOL         1 TEMP              0 ****  ****    0 ROOT
