@<TRIPOS>MOLECULE
MOL
  182   178     1     0     0
SMALL
resp


@<TRIPOS>ATOM
      1 C1          0.9520   -4.5080    5.9720 c3        1 MOL     -0.308746
      2 C2          0.9970   -4.1380    4.5000 c         1 MOL      0.731112
      3 O1          0.0300   -4.1530    3.7500 o         1 MOL     -0.574775
      4 H1          1.9020   -4.9540    6.2630 hc        1 MOL      0.090923
      5 H2          0.7750   -3.6120    6.5670 hc        1 MOL      0.090923
      6 H3          0.1470   -5.2230    6.1420 hc        1 MOL      0.090923
      7 N1          2.1990   -3.7710    3.9980 n         1 MOL     -0.566030
      8 C3          2.4500   -3.2550    2.6250 c3        1 MOL      0.137010
      9 C4          2.5330   -4.4470    1.7090 c         1 MOL      0.564699
     10 O2          2.8480   -5.5660    2.1310 o         1 MOL     -0.556968
     11 C5          3.6300   -2.2770    2.6250 c3        1 MOL     -0.164579
     12 C6          3.6430   -1.4470    1.3760 c         1 MOL      0.699616
     13 O3          3.9610   -0.2610    1.4810 o         1 MOL     -0.691828
     14 O4          3.3210   -1.8330    0.2170 o         1 MOL     -0.691828
     15 H4          2.9910   -3.8210    4.6120 hn        1 MOL      0.303639
     16 H5          1.5740   -2.6670    2.3520 h1        1 MOL     -0.139327
     17 H6          4.5300   -2.8950    2.6160 hc        1 MOL      0.081136
     18 H7          3.6550   -1.6450    3.5090 hc        1 MOL      0.081136
     19 N2          2.2670   -4.2260    0.4140 n         1 MOL     -0.180997
     20 C7          2.1820   -5.2250   -0.6970 c3        1 MOL     -0.091551
     21 C8          3.4840   -5.0830   -1.5830 c         1 MOL      0.420364
     22 O5          4.0290   -5.9940   -2.2620 o         1 MOL     -0.527042
     23 C9          0.8610   -4.9860   -1.4240 c3        1 MOL      0.205073
     24 C10         0.6710   -6.1770   -2.4320 c3        1 MOL     -0.170552
     25 C11        -0.6740   -6.1250   -3.1670 c3        1 MOL      0.100446
     26 C12        -1.9170   -6.5220   -2.3490 c3        1 MOL      0.092923
     27 N3         -3.0790   -6.7780   -3.3140 n4        1 MOL     -0.321937
     28 H8          2.1570   -3.2650    0.1420 hn        1 MOL      0.004658
     29 H9          2.1600   -6.2250   -0.2760 h1        1 MOL      0.109512
     30 H10         0.8670   -4.0260   -1.9360 hc        1 MOL     -0.051148
     31 H11         0.1050   -4.8870   -0.6480 hc        1 MOL     -0.051148
     32 H12         0.7350   -7.1380   -1.9260 hc        1 MOL      0.071054
     33 H13         1.4700   -6.1220   -3.1670 hc        1 MOL      0.071054
     34 H14        -0.5570   -6.7210   -4.0660 hc        1 MOL     -0.004600
     35 H15        -0.8200   -5.0930   -3.4900 hc        1 MOL     -0.004600
     36 H16        -2.2050   -5.6890   -1.7220 hx        1 MOL      0.044057
     37 H17        -1.6720   -7.4150   -1.7710 hx        1 MOL      0.044057
     38 H18        -3.6500   -5.9530   -3.2220 hn        1 MOL      0.262419
     39 H19        -2.7960   -7.0040   -4.2630 hn        1 MOL      0.262419
     40 H20        -3.6240   -7.5190   -2.8900 hn        1 MOL      0.262419
     41 N4          4.1220   -3.8480   -1.5660 n         1 MOL     -0.208797
     42 C13         5.2650   -3.5070   -2.3470 c3        1 MOL      0.149055
     43 C14         6.4270   -3.0130   -1.5240 c         1 MOL      0.319179
     44 O6          7.5100   -3.0490   -2.1180 o         1 MOL     -0.508622
     45 C15         4.9230   -2.4790   -3.4220 c3        1 MOL     -0.263448
     46 C16         4.3050   -1.1740   -2.9330 c         1 MOL      0.766478
     47 O7          3.1760   -0.8260   -3.3130 o         1 MOL     -0.714491
     48 O8          4.9070   -0.4000   -2.1600 o         1 MOL     -0.714491
     49 H21         3.5820   -3.0880   -1.1710 hn        1 MOL      0.132597
     50 H22         5.5380   -4.4200   -2.8660 h1        1 MOL      0.101555
     51 H23         4.1030   -2.9100   -3.9930 hc        1 MOL      0.068324
     52 H24         5.7850   -2.3910   -4.0940 hc        1 MOL      0.068324
     53 N5          6.1920   -2.7180   -0.2570 n         1 MOL     -0.092514
     54 C17         7.2640   -2.2830    0.6390 c3        1 MOL     -0.155939
     55 C18         7.7520   -0.8190    0.4330 c         1 MOL      0.495639
     56 O9          8.6680   -0.3660    1.1210 o         1 MOL     -0.576956
     57 H25         5.2600   -2.8400    0.1180 hn        1 MOL      0.060709
     58 H26         8.1270   -2.8980    0.3980 h1        1 MOL      0.107609
     59 H27         7.0080   -2.4730    1.6900 h1        1 MOL      0.107609
     60 N6          7.1380   -0.0180   -0.3590 n         1 MOL     -0.228879
     61 C19         7.3480    1.4330   -0.6290 c3        1 MOL      0.224178
     62 C20         6.0780    2.3830   -0.4990 c         1 MOL      0.217774
     63 O10         4.9210    1.9140   -0.3190 o         1 MOL     -0.331869
     64 C21         7.9490    1.6690   -2.0090 c3        1 MOL     -0.280224
     65 C22         7.0700    2.2640   -3.0570 c         1 MOL      0.584820
     66 N7          5.9870    1.6680   -3.4690 n         1 MOL     -0.648483
     67 O11         7.3420    3.3120   -3.5800 o         1 MOL     -0.590360
     68 H28         6.3160   -0.3380   -0.8500 hn        1 MOL      0.171803
     69 H29         8.0970    1.7590    0.0880 h1        1 MOL      0.053354
     70 H30         8.3540    0.7090   -2.3360 hc        1 MOL      0.101086
     71 H31         8.7460    2.3990   -1.8160 hc        1 MOL      0.101086
     72 H32         5.7360    0.7640   -3.1020 hn        1 MOL      0.323754
     73 H33         5.5390    1.9480   -4.3280 hn        1 MOL      0.323754
     74 N8          6.2460    3.7050   -0.4960 n         1 MOL     -0.331567
     75 C23         5.1700    4.6600   -0.6080 c3        1 MOL     -0.008216
     76 C24         4.2780    4.6340    0.7100 c         1 MOL      0.421465
     77 O12         4.7030    4.5310    1.8740 o         1 MOL     -0.463837
     78 H34         7.1910    4.0530   -0.6180 hn        1 MOL      0.302813
     79 H35         4.5560    4.3020   -1.4340 h1        1 MOL      0.077345
     80 H36         5.6380    5.5810   -0.9550 h1        1 MOL      0.077345
     81 N9          2.9420    4.7580    0.4870 n         1 MOL     -0.405378
     82 C25         1.8500    4.5090    1.4500 c3        1 MOL      0.370227
     83 C26         1.6360    2.9930    1.7140 c         1 MOL      0.753493
     84 O13         2.1670    2.1560    1.0140 o         1 MOL     -0.707403
     85 C27         0.5260    5.1590    1.0550 c3        1 MOL     -0.231529
     86 C28         0.7250    6.5040    0.3970 ca        1 MOL      0.203122
     87 C29         1.1000    7.6050    1.0830 ca        1 MOL     -0.234137
     88 C30         0.4460    6.6520   -0.9740 ca        1 MOL     -0.234137
     89 C31         1.2300    8.8540    0.4320 ca        1 MOL     -0.183107
     90 C32         0.5410    7.8900   -1.6190 ca        1 MOL     -0.183107
     91 C33         0.8580    9.0100   -0.9510 ca        1 MOL      0.254487
     92 O14         0.9490   10.2340   -1.5460 oh        1 MOL     -0.435424
     93 H37         2.7250    4.7560   -0.5020 hn        1 MOL      0.121964
     94 H38         2.1990    4.9300    2.3870 h1        1 MOL      0.000721
     95 H39        -0.1690    5.1200    1.8990 hc        1 MOL      0.040373
     96 H40         0.1610    4.4410    0.3180 hc        1 MOL      0.040373
     97 H41         1.3850    7.4490    2.1050 ha        1 MOL      0.138069
     98 H42         0.2230    5.7590   -1.5450 ha        1 MOL      0.138069
     99 H43         1.5790    9.6770    1.0340 ha        1 MOL      0.143054
    100 H44         0.2920    7.9600   -2.6690 ha        1 MOL      0.143054
    101 H45         0.6840   10.1880   -2.4640 ho        1 MOL      0.349357
    102 N10         0.7520    2.6060    2.6480 n         1 MOL     -0.801550
    103 C34         0.3660    1.1830    3.0320 c3        1 MOL      0.436382
    104 C35        -0.0470    0.1490    1.8560 c         1 MOL      0.208880
    105 O15         0.7850   -0.2270    1.0570 o         1 MOL     -0.153977
    106 C36         1.3230    0.6170    4.0720 c3        1 MOL      0.103730
    107 C37         0.7950   -0.7000    4.7550 c3        1 MOL     -0.007185
    108 C38         1.6860    1.6870    5.1940 c3        1 MOL     -0.305119
    109 C39        -0.3800   -0.7180    5.6410 c3        1 MOL     -0.188342
    110 H46         0.2660    3.2880    3.2200 hn        1 MOL      0.323190
    111 H47        -0.5780    1.2890    3.5740 h1        1 MOL     -0.026458
    112 H48         2.2650    0.3170    3.6160 hc        1 MOL      0.037818
    113 H49         1.6210   -1.1180    5.3200 hc        1 MOL      0.032295
    114 H50         0.6150   -1.3780    3.9210 hc        1 MOL      0.032295
    115 H51         2.2300    2.5110    4.7120 hc        1 MOL      0.079386
    116 H52         0.7230    2.0780    5.5430 hc        1 MOL      0.079386
    117 H53         2.1700    1.2860    6.0720 hc        1 MOL      0.079386
    118 H54        -0.3670   -1.6910    6.1350 hc        1 MOL      0.046062
    119 H55        -0.3430    0.0880    6.3730 hc        1 MOL      0.046062
    120 H56        -1.3920   -0.7170    5.2280 hc        1 MOL      0.046062
    121 N11        -1.2740   -0.2360    1.6560 n         1 MOL     -0.323972
    122 C40        -1.7190   -1.2010    0.6470 c3        1 MOL     -0.233709
    123 C41        -3.1840   -1.0880    0.2300 c         1 MOL      0.786760
    124 O16        -3.5090   -1.4740   -0.8970 o         1 MOL     -0.611712
    125 C42        -1.4760   -2.6850    1.0900 c3        1 MOL      0.049145
    126 O17        -1.9530   -2.8110    2.4440 oh        1 MOL     -0.568498
    127 H57        -1.9870    0.0350    2.3230 hn        1 MOL      0.232973
    128 H58        -1.1180   -1.0950   -0.2610 h1        1 MOL      0.089420
    129 H59        -0.4400   -2.9900    1.0400 h1        1 MOL      0.102432
    130 H60        -2.0260   -3.4640    0.5540 h1        1 MOL      0.102432
    131 H61        -1.2160   -3.1460    2.9630 ho        1 MOL      0.367313
    132 N12        -4.0900   -0.5440    1.0170 n         1 MOL     -0.541736
    133 C43        -5.4370   -0.2750    0.6470 c3        1 MOL      0.049832
    134 C44        -5.4180    0.7970   -0.4350 c         1 MOL      0.650336
    135 O18        -4.4450    1.5650   -0.5940 o         1 MOL     -0.558009
    136 C45        -6.1720    0.3190    1.9250 c3        1 MOL     -0.412213
    137 H62        -3.7590   -0.2350    1.9110 hn        1 MOL      0.318334
    138 H63        -5.9060   -1.2190    0.3770 h1        1 MOL      0.121846
    139 H64        -7.2560    0.3080    1.8860 hc        1 MOL      0.136999
    140 H65        -5.9050   -0.2560    2.8130 hc        1 MOL      0.136999
    141 H66        -5.9110    1.3800    2.0020 hc        1 MOL      0.136999
    142 N13        -6.5200    0.8310   -1.2470 n         1 MOL     -0.696924
    143 C46        -7.7220    0.0170   -1.3480 c3        1 MOL      0.699162
    144 C47        -8.8630    0.8740   -1.9330 c         1 MOL      0.230737
    145 O19        -8.6060    1.6770   -2.8780 o         1 MOL     -0.504735
    146 C48        -7.3790   -1.2570   -2.1420 c3        1 MOL     -0.466768
    147 H67        -6.4850    1.5250   -1.9830 hn        1 MOL      0.310964
    148 H68        -7.9960   -0.4060   -0.3790 h1        1 MOL     -0.090281
    149 H69        -6.9740   -0.7640   -3.0240 hc        1 MOL      0.111654
    150 H70        -6.6470   -1.7130   -1.4780 hc        1 MOL      0.111654
    151 H71        -8.3210   -1.7920   -2.2240 hc        1 MOL      0.111654
    152 N14       -10.1390    0.7830   -1.4840 n         1 MOL     -0.246993
    153 C49       -10.6600    0.1360   -0.2320 c3        1 MOL     -0.326151
    154 C50       -10.1990    0.9750    1.0380 c         1 MOL      0.361577
    155 O20        -9.8470    0.5390    2.1320 o         1 MOL     -0.475872
    156 C51       -12.2010    0.0490   -0.3190 c3        1 MOL      0.386641
    157 C52       -12.6720   -0.4830   -1.6540 c3        1 MOL     -0.315065
    158 C53       -14.1530   -0.8040   -1.6410 c         1 MOL      0.686885
    159 O21       -14.9590   -0.0570   -2.2550 o         1 MOL     -0.638157
    160 O22       -14.6480   -1.6570   -0.8620 o         1 MOL     -0.638157
    161 H72       -10.7980    1.4310   -1.8910 hn        1 MOL      0.286595
    162 H73       -10.2600   -0.8730   -0.1140 h1        1 MOL      0.160030
    163 H74       -12.7370    0.9760   -0.1030 hc        1 MOL     -0.031913
    164 H75       -12.5770   -0.6980    0.3970 hc        1 MOL     -0.031913
    165 H76       -12.0650   -1.3380   -1.9480 hc        1 MOL      0.034102
    166 H77       -12.4430    0.2080   -2.4710 hc        1 MOL      0.034102
    167 N15       -10.2480    2.3000    0.8940 n         1 MOL     -0.236853
    168 C54        -9.5990    3.2310    1.7430 c3        1 MOL     -0.111772
    169 H78       -10.3060    4.0060    2.0380 h1        1 MOL      0.073087
    170 H79        -9.2320    2.7180    2.6310 h1        1 MOL      0.073087
    171 H80        -8.7620    3.6850    1.2120 h1        1 MOL      0.073087
    172 H81       -10.5830    2.6330    0.0020 hn        1 MOL      0.240731
    173 Ca1         2.6820    0.4380   -0.8810 Ca        1 MOL      1.725263
    174 O23         3.2410    2.5490   -2.8240 oh        1 MOL     -0.816497
    175 H82         3.5560    2.5650   -3.7290 ho        1 MOL      0.400790
    176 H83         3.0330    3.4590   -2.6200 ho        1 MOL      0.400790
    177 O24         0.9990   -1.3390   -1.9170 oh        1 MOL     -0.816497
    178 H84         0.0930   -1.5970   -2.1100 ho        1 MOL      0.400790
    179 H85         1.4650   -1.4710   -2.7330 ho        1 MOL      0.400790
    180 O25         0.4140    1.7270   -1.8800 oh        1 MOL     -0.816497
    181 H86        -0.1680    2.3260   -1.4170 ho        1 MOL      0.400790
    182 H87         0.3380    1.9830   -2.8000 ho        1 MOL      0.400790
@<TRIPOS>BOND
     1    1    2 1   
     2    1    4 1   
     3    1    5 1   
     4    1    6 1   
     5    2    3 2   
     6    2    7 1   
     7    7    8 1   
     8    7   15 1   
     9    8    9 1   
    10    8   11 1   
    11    8   16 1   
    12    9   10 2   
    13    9   19 1   
    14   11   12 1   
    15   11   17 1   
    16   11   18 1   
    17   12   13 1   
    18   12   14 1   
    19   19   20 1   
    20   19   28 1   
    21   20   21 1   
    22   20   23 1   
    23   20   29 1   
    24   21   22 2   
    25   21   41 1   
    26   23   24 1   
    27   23   30 1   
    28   23   31 1   
    29   24   25 1   
    30   24   32 1   
    31   24   33 1   
    32   25   26 1   
    33   25   34 1   
    34   25   35 1   
    35   26   27 1   
    36   26   36 1   
    37   26   37 1   
    38   27   38 1   
    39   27   39 1   
    40   27   40 1   
    41   41   42 1   
    42   41   49 1   
    43   42   43 1   
    44   42   45 1   
    45   42   50 1   
    46   43   44 2   
    47   43   53 1   
    48   45   46 1   
    49   45   51 1   
    50   45   52 1   
    51   46   47 1   
    52   46   48 1   
    53   53   54 1   
    54   53   57 1   
    55   54   55 1   
    56   54   58 1   
    57   54   59 1   
    58   55   56 2   
    59   55   60 1   
    60   60   61 1   
    61   60   68 1   
    62   61   62 1   
    63   61   64 1   
    64   61   69 1   
    65   62   63 2   
    66   62   74 1   
    67   64   65 1   
    68   64   70 1   
    69   64   71 1   
    70   65   66 1   
    71   65   67 2   
    72   66   72 1   
    73   66   73 1   
    74   74   75 1   
    75   74   78 1   
    76   75   76 1   
    77   75   79 1   
    78   75   80 1   
    79   76   77 2   
    80   76   81 1   
    81   81   82 1   
    82   81   93 1   
    83   82   83 1   
    84   82   85 1   
    85   82   94 1   
    86   83   84 2   
    87   83  102 1   
    88   85   86 1   
    89   85   95 1   
    90   85   96 1   
    91   86   87 ar  
    92   86   88 ar  
    93   87   89 ar  
    94   87   97 1   
    95   88   90 ar  
    96   88   98 1   
    97   89   91 ar  
    98   89   99 1   
    99   90   91 ar  
   100   90  100 1   
   101   91   92 1   
   102   92  101 1   
   103  102  103 1   
   104  102  110 1   
   105  103  104 1   
   106  103  106 1   
   107  103  111 1   
   108  104  105 2   
   109  104  121 1   
   110  106  107 1   
   111  106  108 1   
   112  106  112 1   
   113  107  109 1   
   114  107  113 1   
   115  107  114 1   
   116  108  115 1   
   117  108  116 1   
   118  108  117 1   
   119  109  118 1   
   120  109  119 1   
   121  109  120 1   
   122  121  122 1   
   123  121  127 1   
   124  122  123 1   
   125  122  125 1   
   126  122  128 1   
   127  123  124 2   
   128  123  132 1   
   129  125  126 1   
   130  125  129 1   
   131  125  130 1   
   132  126  131 1   
   133  132  133 1   
   134  132  137 1   
   135  133  134 1   
   136  133  136 1   
   137  133  138 1   
   138  134  135 2   
   139  134  142 1   
   140  136  139 1   
   141  136  140 1   
   142  136  141 1   
   143  142  143 1   
   144  142  147 1   
   145  143  144 1   
   146  143  146 1   
   147  143  148 1   
   148  144  145 2   
   149  144  152 1   
   150  146  149 1   
   151  146  150 1   
   152  146  151 1   
   153  152  153 1   
   154  152  161 1   
   155  153  154 1   
   156  153  156 1   
   157  153  162 1   
   158  154  155 2   
   159  154  167 1   
   160  156  157 1   
   161  156  163 1   
   162  156  164 1   
   163  157  158 1   
   164  157  165 1   
   165  157  166 1   
   166  158  159 1   
   167  158  160 1   
   168  167  168 1   
   169  167  172 1   
   170  168  169 1   
   171  168  170 1   
   172  168  171 1   
   173  174  175 1   
   174  174  176 1   
   175  177  178 1   
   176  177  179 1   
   177  180  181 1   
   178  180  182 1   
@<TRIPOS>SUBSTRUCTURE
     1 MOL         1 TEMP              0 ****  ****    0 ROOT
