@<TRIPOS>MOLECULE
MOL
  188   182     1     0     0
SMALL
resp


@<TRIPOS>ATOM
      1 C1         -4.6590    0.9630   -4.3100 c3        1 MOL     -0.363858
      2 C2         -5.4110    0.6550   -3.0350 c         1 MOL      0.680008
      3 O1         -4.7540    0.2430   -2.0580 o         1 MOL     -0.573417
      4 H1         -5.2440    0.6270   -5.1650 hc        1 MOL      0.098520
      5 H2         -4.4930    2.0380   -4.3830 hc        1 MOL      0.098520
      6 H3         -3.7000    0.4460   -4.3000 hc        1 MOL      0.098520
      7 N1         -6.7310    0.8940   -2.8890 n         1 MOL     -0.702597
      8 C3         -7.4810    0.7440   -1.6290 c3        1 MOL      0.159013
      9 C4         -7.1820   -0.5140   -0.7800 c         1 MOL      0.488139
     10 O2         -7.2910   -0.3660    0.4360 o         1 MOL     -0.488018
     11 C5         -7.3050    2.0490   -0.7530 c3        1 MOL     -0.228320
     12 C6         -7.1530    3.4280   -1.4830 c         1 MOL      0.661788
     13 O3         -8.1760    4.0230   -1.8290 o         1 MOL     -0.622399
     14 O4         -6.0300    4.0390   -1.6160 o         1 MOL     -0.622399
     15 H4         -7.1180    1.4580   -3.6400 hn        1 MOL      0.361412
     16 H5         -8.5340    0.7150   -1.8910 h1        1 MOL      0.067182
     17 H6         -6.4660    1.9740   -0.0630 hc        1 MOL      0.062877
     18 H7         -8.1800    2.1440   -0.1020 hc        1 MOL      0.062877
     19 N2         -6.9430   -1.7140   -1.3380 n         1 MOL     -0.540282
     20 C7         -6.6300   -2.9840   -0.6850 c3        1 MOL      0.203943
     21 C8         -5.2870   -3.0080    0.1110 c         1 MOL      0.468107
     22 O5         -4.8430   -4.0580    0.5910 o         1 MOL     -0.573695
     23 C9         -6.7540   -4.0630   -1.8040 c3        1 MOL     -0.155988
     24 C10        -8.0520   -4.8580   -1.7460 c3        1 MOL     -0.063051
     25 C11        -8.0800   -5.9270   -2.8640 c3        1 MOL     -0.223625
     26 C12        -9.2000   -6.9050   -2.6970 c3        1 MOL      0.082618
     27 N3         -9.1300   -7.9820   -3.7290 n4        1 MOL     -0.197868
     28 H8         -7.0090   -1.7290   -2.3430 hn        1 MOL      0.292815
     29 H9         -7.3830   -3.2400    0.0600 h1        1 MOL      0.052265
     30 H10        -5.9290   -4.7730   -1.7440 hc        1 MOL      0.061438
     31 H11        -6.7090   -3.6280   -2.8060 hc        1 MOL      0.061438
     32 H12        -8.9350   -4.2320   -1.7380 hc        1 MOL      0.064817
     33 H13        -8.0270   -5.3380   -0.7710 hc        1 MOL      0.064817
     34 H14        -7.1670   -6.4660   -2.6210 hc        1 MOL      0.107048
     35 H15        -8.0340   -5.5150   -3.8750 hc        1 MOL      0.107048
     36 H16       -10.1350   -6.3860   -2.8840 hx        1 MOL      0.068184
     37 H17        -9.1820   -7.3520   -1.7050 hx        1 MOL      0.068184
     38 H18       -10.0580   -8.3770   -3.7900 hn        1 MOL      0.233376
     39 H19        -8.8620   -7.6760   -4.6510 hn        1 MOL      0.233376
     40 H20        -8.4970   -8.7120   -3.4380 hn        1 MOL      0.233376
     41 N4         -4.5990   -1.8890    0.2160 n         1 MOL     -0.441924
     42 C13        -3.4190   -1.7800    1.1220 c3        1 MOL      0.358609
     43 C14        -3.7050   -1.3430    2.6180 c         1 MOL      0.327368
     44 O6         -4.5010   -0.3830    2.8350 o         1 MOL     -0.486098
     45 C15        -2.3100   -1.0250    0.4620 c3        1 MOL     -0.021417
     46 C16        -0.9650   -1.1610    1.2100 c         1 MOL      0.544991
     47 O7         -0.7990   -0.6960    2.3190 o         1 MOL     -0.674023
     48 O8         -0.0560   -1.8480    0.7160 o         1 MOL     -0.674023
     49 H21        -5.0640   -1.0760   -0.1680 hn        1 MOL      0.300018
     50 H22        -3.0710   -2.8130    1.1980 h1        1 MOL      0.016789
     51 H23        -2.5730    0.0370    0.4030 hc        1 MOL      0.004023
     52 H24        -2.2640   -1.4690   -0.5340 hc        1 MOL      0.004023
     53 N5         -3.0360   -1.9870    3.5840 n         1 MOL     -0.195048
     54 C17        -3.3230   -1.9450    4.9860 c3        1 MOL     -0.496869
     55 C18        -2.8380   -0.6130    5.6380 c         1 MOL      0.654837
     56 O9         -3.2560   -0.3170    6.7440 o         1 MOL     -0.572260
     57 H25        -2.3600   -2.7060    3.3930 hn        1 MOL      0.250222
     58 H26        -2.7960   -2.8250    5.3610 h1        1 MOL      0.201295
     59 H27        -4.3930   -2.0090    5.1200 h1        1 MOL      0.201295
     60 N6         -1.8330    0.0460    5.0620 n         1 MOL     -0.400371
     61 C19        -1.4520    1.4590    5.3280 c3        1 MOL     -0.041392
     62 C20        -1.6050    2.5570    4.2170 c         1 MOL      0.456665
     63 O10        -1.6800    3.7520    4.5880 o         1 MOL     -0.538164
     64 C21         0.0130    1.3810    5.9880 c3        1 MOL     -0.046581
     65 C22         1.0500    1.5820    4.9500 c         1 MOL      0.500855
     66 N7          1.5390    2.7840    4.7520 n         1 MOL     -0.722798
     67 O11         1.4540    0.7510    4.1520 o         1 MOL     -0.532774
     68 H28        -1.5600   -0.4520    4.2190 hn        1 MOL      0.250060
     69 H29        -2.1610    1.7920    6.0910 h1        1 MOL      0.148849
     70 H30         0.1600    0.4310    6.5110 hc        1 MOL      0.037047
     71 H31         0.0750    2.2120    6.6920 hc        1 MOL      0.037047
     72 H32         1.1920    3.5290    5.3400 hn        1 MOL      0.360795
     73 H33         2.1540    3.0130    3.9820 hn        1 MOL      0.360795
     74 N8         -1.8730    2.1340    2.9650 n         1 MOL     -0.147731
     75 C23        -2.2010    3.0780    1.8420 c3        1 MOL     -0.330733
     76 C24        -0.9840    3.3210    0.9910 c         1 MOL      0.609113
     77 O12         0.1390    3.3430    1.4890 o         1 MOL     -0.552879
     78 H34        -1.6460    1.1840    2.7020 hn        1 MOL      0.209808
     79 H35        -2.5160    4.0420    2.2550 h1        1 MOL      0.164259
     80 H36        -2.9530    2.5680    1.2420 h1        1 MOL      0.164259
     81 N9         -1.1980    3.4190   -0.3000 n         1 MOL     -0.311548
     82 C25        -0.1690    3.7510   -1.2910 c3        1 MOL     -0.127886
     83 C26         0.7110    2.5340   -1.6410 c         1 MOL      0.548078
     84 O13         0.4130    1.3740   -1.3580 o         1 MOL     -0.515695
     85 C27        -0.9120    4.3840   -2.4620 c3        1 MOL     -0.077707
     86 C28        -1.4980    5.8080   -2.2200 ca        1 MOL     -0.036137
     87 C29        -0.7650    6.7560   -1.4810 ca        1 MOL     -0.151453
     88 C30        -2.9400    6.0540   -2.4220 ca        1 MOL     -0.151453
     89 C31        -1.3940    7.9480   -0.9820 ca        1 MOL     -0.237286
     90 C32        -3.4890    7.2640   -2.0550 ca        1 MOL     -0.237286
     91 C33        -2.7810    8.2100   -1.2720 ca        1 MOL      0.323246
     92 O14        -3.3300    9.4260   -1.0100 oh        1 MOL     -0.409504
     93 H37        -2.1300    3.1580   -0.5990 hn        1 MOL      0.295958
     94 H38         0.4490    4.5510   -0.8830 h1        1 MOL      0.025347
     95 H39        -1.7090    3.7510   -2.8520 hc        1 MOL      0.089120
     96 H40        -0.2160    4.5130   -3.2970 hc        1 MOL      0.089120
     97 H41         0.2090    6.5000   -1.0990 ha        1 MOL      0.148481
     98 H42        -3.5540    5.3080   -2.9050 ha        1 MOL      0.148481
     99 H43        -0.7510    8.6160   -0.4350 ha        1 MOL      0.145627
    100 H44        -4.5150    7.5280   -2.2540 ha        1 MOL      0.145627
    101 H45        -2.6870   10.0800   -0.7160 ho        1 MOL      0.311307
    102 N10         1.8890    2.7610   -2.2190 n         1 MOL     -0.388442
    103 C34         2.8700    1.7650   -2.5840 c3        1 MOL     -0.014426
    104 C35         4.0640    1.8120   -1.6180 c         1 MOL      0.173107
    105 O15         4.4260    0.7540   -1.0820 o         1 MOL     -0.250049
    106 C36         3.2700    1.8100   -4.0870 c3        1 MOL      0.010673
    107 C37         2.0640    1.7280   -5.0450 c3        1 MOL      0.191972
    108 C38         4.3710    0.8220   -4.4530 c3        1 MOL     -0.456473
    109 C39         1.1430    0.4720   -4.8340 c3        1 MOL     -0.144604
    110 H46         2.0910    3.7160   -2.4540 hn        1 MOL      0.290836
    111 H47         2.4670    0.7550   -2.4260 h1        1 MOL      0.135025
    112 H48         3.6690    2.8110   -4.2250 hc        1 MOL     -0.015618
    113 H49         2.4120    1.7370   -6.0790 hc        1 MOL     -0.047204
    114 H50         1.4430    2.6180   -4.9770 hc        1 MOL     -0.047204
    115 H51         5.3160    0.8120   -3.9200 hc        1 MOL      0.131185
    116 H52         3.9060   -0.1620   -4.3380 hc        1 MOL      0.131185
    117 H53         4.5780    0.8860   -5.5260 hc        1 MOL      0.131185
    118 H54         1.6370   -0.4850   -4.7100 hc        1 MOL      0.051372
    119 H55         0.5520    0.7030   -3.9430 hc        1 MOL      0.051372
    120 H56         0.4600    0.3860   -5.6770 hc        1 MOL      0.051372
    121 N11         4.7210    2.9390   -1.4610 n         1 MOL     -0.167605
    122 C40         5.7090    3.1420   -0.3490 c3        1 MOL      0.016275
    123 C41         6.8290    2.0530   -0.4200 c         1 MOL      0.323992
    124 O16         7.2350    1.6000    0.6200 o         1 MOL     -0.489279
    125 C42         6.2020    4.5810   -0.3840 c3        1 MOL      0.269761
    126 O17         5.1350    5.4850   -0.4680 oh        1 MOL     -0.622616
    127 H57         4.4110    3.7700   -1.9300 hn        1 MOL      0.250269
    128 H58         5.2340    2.9650    0.6150 h1        1 MOL      0.075706
    129 H59         6.7260    4.6160   -1.3370 h1        1 MOL     -0.013804
    130 H60         6.8940    4.7120    0.4510 h1        1 MOL     -0.013804
    131 H61         5.4840    6.3760   -0.3660 ho        1 MOL      0.413916
    132 N12         7.2220    1.6570   -1.5740 n         1 MOL     -0.254771
    133 C43         8.2290    0.6660   -1.8870 c3        1 MOL      0.309258
    134 C44         8.0420   -0.7250   -1.2420 c         1 MOL      0.296811
    135 O18         9.0630   -1.4240   -1.1800 o         1 MOL     -0.515733
    136 C45         9.6340    1.2600   -1.6700 c3        1 MOL     -0.279767
    137 H62         6.8260    2.0690   -2.3980 hn        1 MOL      0.200348
    138 H63         8.2990    0.5360   -2.9690 h1        1 MOL      0.047970
    139 H64         9.6400    2.3310   -1.9120 hc        1 MOL      0.073953
    140 H65         9.9970    1.0520   -0.6730 hc        1 MOL      0.073953
    141 H66        10.2930    0.8650   -2.4480 hc        1 MOL      0.073953
    142 N13         6.8710   -1.1950   -0.7490 n         1 MOL     -0.230551
    143 C46         6.6990   -2.5110   -0.1330 c3        1 MOL      0.645778
    144 C47         5.6910   -3.3870   -0.8620 c         1 MOL      0.162005
    145 O19         5.0110   -3.0090   -1.8030 o         1 MOL     -0.454931
    146 C48         6.4570   -2.3600    1.4180 c3        1 MOL     -0.532606
    147 H67         6.0640   -0.5940   -0.8740 hn        1 MOL     -0.009557
    148 H68         7.6800   -2.9730   -0.2500 h1        1 MOL     -0.042008
    149 H69         7.1580   -1.6800    1.9100 hc        1 MOL      0.141734
    150 H70         5.5040   -1.9120    1.6710 hc        1 MOL      0.141734
    151 H71         6.5150   -3.3470    1.8800 hc        1 MOL      0.141734
    152 N14         5.4650   -4.6580   -0.4030 n         1 MOL     -0.549437
    153 C49         4.4090   -5.6270   -0.8490 c3        1 MOL     -0.028901
    154 C50         4.3190   -5.9890   -2.3060 c         1 MOL      0.412728
    155 O20         3.5670   -6.9070   -2.7140 o         1 MOL     -0.513730
    156 C51         2.9880   -5.3270   -0.2640 c3        1 MOL     -0.106037
    157 C52         3.0080   -5.1140    1.2680 c3        1 MOL      0.073987
    158 C53         1.5530   -4.7950    1.7670 c         1 MOL      0.514498
    159 O21         1.4150   -3.7490    2.4280 o         1 MOL     -0.627368
    160 O22         0.7020   -5.6570    1.5250 o         1 MOL     -0.627368
    161 H72         6.0700   -4.9930    0.3420 hn        1 MOL      0.329647
    162 H73         4.7430   -6.5410   -0.3580 h1        1 MOL      0.103466
    163 H74         2.3530   -6.1700   -0.5710 hc        1 MOL      0.101655
    164 H75         2.6600   -4.3640   -0.6590 hc        1 MOL      0.101655
    165 H76         3.6700   -4.3050    1.5640 hc        1 MOL     -0.048000
    166 H77         3.2690   -6.0340    1.8190 hc        1 MOL     -0.048000
    167 N15         5.0930   -5.3010   -3.1940 n         1 MOL     -0.241049
    168 C54         5.3080   -5.6800   -4.6420 c3        1 MOL     -0.142975
    169 H78         6.3490   -5.5020   -4.9120 h1        1 MOL      0.078328
    170 H79         5.0720   -6.7350   -4.7810 h1        1 MOL      0.078328
    171 H80         4.6610   -5.0750   -5.2760 h1        1 MOL      0.078328
    172 H81         5.5300   -4.4960   -2.7850 hn        1 MOL      0.281140
    173 Ca1         1.8450   -1.2580    2.5500 Ca        1 MOL      1.778465
    174 O23         1.3910    0.9920    1.1210 oh        1 MOL     -0.883777
    175 H82         1.1420    1.8110    1.5610 ho        1 MOL      0.421358
    176 H83         1.1440    1.1110    0.2090 ho        1 MOL      0.421358
    177 O24         4.1660   -2.1830    3.8020 oh        1 MOL     -0.883777
    178 H84         4.2770   -3.1110    4.0380 ho        1 MOL      0.421358
    179 H85         5.0280   -1.7950    3.9680 ho        1 MOL      0.421358
    180 O25         0.8710   -2.2320    4.8800 oh        1 MOL     -0.883777
    181 H86         0.2990   -2.9590    5.0990 ho        1 MOL      0.421358
    182 H87         1.2910   -1.9980    5.7130 ho        1 MOL      0.421358
    183 O26         3.2240   -1.3860    0.2020 oh        1 MOL     -0.883777
    184 H88         3.5780   -0.5170   -0.0210 ho        1 MOL      0.421358
    185 H89         2.7270   -1.6550   -0.5610 ho        1 MOL      0.421358
    186 O27         3.9410    0.5320    2.4380 oh        1 MOL     -0.883777
    187 H90         3.6830    1.4580    2.4480 ho        1 MOL      0.421358
    188 H91         4.8070    0.5330    2.8590 ho        1 MOL      0.421358
@<TRIPOS>BOND
     1    1    2 1   
     2    1    4 1   
     3    1    5 1   
     4    1    6 1   
     5    2    3 2   
     6    2    7 1   
     7    7    8 1   
     8    7   15 1   
     9    8    9 1   
    10    8   11 1   
    11    8   16 1   
    12    9   10 2   
    13    9   19 1   
    14   11   12 1   
    15   11   17 1   
    16   11   18 1   
    17   12   13 1   
    18   12   14 1   
    19   19   20 1   
    20   19   28 1   
    21   20   21 1   
    22   20   23 1   
    23   20   29 1   
    24   21   22 2   
    25   21   41 1   
    26   23   24 1   
    27   23   30 1   
    28   23   31 1   
    29   24   25 1   
    30   24   32 1   
    31   24   33 1   
    32   25   26 1   
    33   25   34 1   
    34   25   35 1   
    35   26   27 1   
    36   26   36 1   
    37   26   37 1   
    38   27   38 1   
    39   27   39 1   
    40   27   40 1   
    41   41   42 1   
    42   41   49 1   
    43   42   43 1   
    44   42   45 1   
    45   42   50 1   
    46   43   44 2   
    47   43   53 1   
    48   45   46 1   
    49   45   51 1   
    50   45   52 1   
    51   46   47 1   
    52   46   48 1   
    53   53   54 1   
    54   53   57 1   
    55   54   55 1   
    56   54   58 1   
    57   54   59 1   
    58   55   56 2   
    59   55   60 1   
    60   60   61 1   
    61   60   68 1   
    62   61   62 1   
    63   61   64 1   
    64   61   69 1   
    65   62   63 2   
    66   62   74 1   
    67   64   65 1   
    68   64   70 1   
    69   64   71 1   
    70   65   66 1   
    71   65   67 2   
    72   66   72 1   
    73   66   73 1   
    74   74   75 1   
    75   74   78 1   
    76   75   76 1   
    77   75   79 1   
    78   75   80 1   
    79   76   77 2   
    80   76   81 1   
    81   81   82 1   
    82   81   93 1   
    83   82   83 1   
    84   82   85 1   
    85   82   94 1   
    86   83   84 2   
    87   83  102 1   
    88   85   86 1   
    89   85   95 1   
    90   85   96 1   
    91   86   87 ar  
    92   86   88 ar  
    93   87   89 ar  
    94   87   97 1   
    95   88   90 ar  
    96   88   98 1   
    97   89   91 ar  
    98   89   99 1   
    99   90   91 ar  
   100   90  100 1   
   101   91   92 1   
   102   92  101 1   
   103  102  103 1   
   104  102  110 1   
   105  103  104 1   
   106  103  106 1   
   107  103  111 1   
   108  104  105 2   
   109  104  121 1   
   110  106  107 1   
   111  106  108 1   
   112  106  112 1   
   113  107  109 1   
   114  107  113 1   
   115  107  114 1   
   116  108  115 1   
   117  108  116 1   
   118  108  117 1   
   119  109  118 1   
   120  109  119 1   
   121  109  120 1   
   122  121  122 1   
   123  121  127 1   
   124  122  123 1   
   125  122  125 1   
   126  122  128 1   
   127  123  124 2   
   128  123  132 1   
   129  125  126 1   
   130  125  129 1   
   131  125  130 1   
   132  126  131 1   
   133  132  133 1   
   134  132  137 1   
   135  133  134 1   
   136  133  136 1   
   137  133  138 1   
   138  134  135 2   
   139  134  142 1   
   140  136  139 1   
   141  136  140 1   
   142  136  141 1   
   143  142  143 1   
   144  142  147 1   
   145  143  144 1   
   146  143  146 1   
   147  143  148 1   
   148  144  145 2   
   149  144  152 1   
   150  146  149 1   
   151  146  150 1   
   152  146  151 1   
   153  152  153 1   
   154  152  161 1   
   155  153  154 1   
   156  153  156 1   
   157  153  162 1   
   158  154  155 2   
   159  154  167 1   
   160  156  157 1   
   161  156  163 1   
   162  156  164 1   
   163  157  158 1   
   164  157  165 1   
   165  157  166 1   
   166  158  159 1   
   167  158  160 1   
   168  167  168 1   
   169  167  172 1   
   170  168  169 1   
   171  168  170 1   
   172  168  171 1   
   173  174  175 1   
   174  174  176 1   
   175  177  178 1   
   176  177  179 1   
   177  180  181 1   
   178  180  182 1   
   179  183  184 1   
   180  183  185 1   
   181  186  187 1   
   182  186  188 1   
@<TRIPOS>SUBSTRUCTURE
     1 MOL         1 TEMP              0 ****  ****    0 ROOT
