@<TRIPOS>MOLECULE
MOL
  201   193     1     0     0
SMALL
resp


@<TRIPOS>ATOM
      1 C1         -1.5640    3.9920    3.2440 c3        1 MOL     -0.465629
      2 C2         -2.9180    3.2120    3.3730 c         1 MOL      0.780218
      3 O1         -3.1050    2.3950    4.2270 o         1 MOL     -0.601494
      4 H1         -1.0670    4.0200    4.2140 hc        1 MOL      0.116418
      5 H2         -0.9210    3.4890    2.5210 hc        1 MOL      0.116418
      6 H3         -1.7610    5.0100    2.9090 hc        1 MOL      0.116418
      7 N1         -3.9260    3.7430    2.6760 n         1 MOL     -0.661266
      8 C3         -5.2080    3.1220    2.6370 c3        1 MOL      0.267297
      9 C4         -5.2400    1.8000    1.8680 c         1 MOL      0.276441
     10 O2         -4.3400    1.4750    1.0580 o         1 MOL     -0.517881
     11 C5         -6.2840    3.9890    1.9460 c3        1 MOL     -0.191670
     12 C6         -5.7590    4.5590    0.6400 c         1 MOL      0.806006
     13 O3         -6.2770    4.1380   -0.4090 o         1 MOL     -0.747638
     14 O4         -4.8470    5.3940    0.7140 o         1 MOL     -0.747638
     15 H4         -3.7050    4.5000    2.0490 hn        1 MOL      0.394413
     16 H5         -5.6060    2.9130    3.6370 h1        1 MOL      0.037874
     17 H6         -6.5900    4.8480    2.5440 hc        1 MOL      0.050767
     18 H7         -7.2050    3.4430    1.7340 hc        1 MOL      0.050767
     19 N2         -6.2640    0.9810    2.1840 n         1 MOL     -0.490834
     20 C7         -6.5000   -0.5080    1.8500 c3        1 MOL      0.261007
     21 C8         -7.7730   -0.8160    1.1730 c         1 MOL      0.339818
     22 O5         -8.3250   -1.8880    1.2660 o         1 MOL     -0.546137
     23 C9         -6.1890   -1.4310    3.0570 c3        1 MOL     -0.183186
     24 C10        -5.7130   -2.8860    2.5730 c3        1 MOL      0.075362
     25 C11        -5.3980   -3.7260    3.8350 c3        1 MOL      0.019229
     26 C12        -5.1520   -5.1550    3.5010 c3        1 MOL     -0.137498
     27 N3         -3.7780   -5.3020    2.8620 n4        1 MOL     -0.310445
     28 H8         -6.9920    1.4280    2.7240 hn        1 MOL      0.297490
     29 H9         -5.7320   -0.7080    1.1010 h1        1 MOL      0.052104
     30 H10        -7.0620   -1.5180    3.7070 hc        1 MOL      0.071894
     31 H11        -5.4910   -1.0410    3.8020 hc        1 MOL      0.071894
     32 H12        -4.8920   -2.7550    1.8710 hc        1 MOL     -0.008608
     33 H13        -6.4740   -3.4360    2.0060 hc        1 MOL     -0.008608
     34 H14        -6.2110   -3.6770    4.5510 hc        1 MOL      0.025987
     35 H15        -4.5220   -3.2410    4.2730 hc        1 MOL      0.025987
     36 H16        -5.8470   -5.4980    2.7420 hx        1 MOL      0.124646
     37 H17        -5.2360   -5.7470    4.4100 hx        1 MOL      0.124646
     38 H18        -3.6350   -4.7320    2.0400 hn        1 MOL      0.305669
     39 H19        -3.0640   -5.0680    3.5340 hn        1 MOL      0.305669
     40 H20        -3.5820   -6.2450    2.5830 hn        1 MOL      0.305669
     41 N4         -8.3660    0.1000    0.4620 n         1 MOL     -0.150153
     42 C13        -9.6700   -0.0020   -0.1750 c3        1 MOL      0.311438
     43 C14        -9.5260   -0.1020   -1.7240 c         1 MOL      0.385357
     44 O6         -9.1770    0.8150   -2.4080 o         1 MOL     -0.504342
     45 C15       -10.6190    1.1080    0.1910 c3        1 MOL     -0.603164
     46 C16       -10.0350    2.5610    0.1700 c         1 MOL      0.831771
     47 O7        -10.4800    3.3130    1.0530 o         1 MOL     -0.714443
     48 O8         -9.1980    3.0460   -0.5970 o         1 MOL     -0.714443
     49 H21        -7.7630    0.8650    0.1800 hn        1 MOL      0.033659
     50 H22       -10.1470   -0.9180    0.1830 h1        1 MOL      0.073842
     51 H23       -11.0720    0.9090    1.1540 hc        1 MOL      0.151334
     52 H24       -11.3490    1.1990   -0.6160 hc        1 MOL      0.151334
     53 N5        -10.0380   -1.1850   -2.3380 n         1 MOL     -0.427066
     54 C17       -10.4430   -2.4260   -1.7340 c3        1 MOL     -0.116528
     55 C18        -9.2610   -3.3500   -1.3550 c         1 MOL      0.465286
     56 O9         -9.5390   -4.3210   -0.7170 o         1 MOL     -0.519978
     57 H25       -10.1800   -1.1520   -3.3390 hn        1 MOL      0.306040
     58 H26       -10.9880   -2.8410   -2.5780 h1        1 MOL      0.100661
     59 H27       -11.1910   -2.2800   -0.9630 h1        1 MOL      0.100661
     60 N6         -8.0140   -3.0190   -1.6990 n         1 MOL     -0.171013
     61 C19        -6.8300   -3.6490   -1.3560 c3        1 MOL     -0.001863
     62 C20        -5.6150   -2.6450   -1.2390 c         1 MOL      0.553982
     63 O10        -5.6710   -1.4840   -1.5460 o         1 MOL     -0.525761
     64 C21        -6.4410   -4.7470   -2.3130 c3        1 MOL     -0.408991
     65 C22        -6.3990   -4.3340   -3.7620 c         1 MOL      0.750215
     66 O11        -7.3670   -4.4560   -4.5240 o         1 MOL     -0.694070
     67 O12        -5.3730   -3.7840   -4.2330 o         1 MOL     -0.694070
     68 H28        -7.8390   -2.1570   -2.2090 hn        1 MOL      0.217923
     69 H29        -6.9560   -4.1550   -0.4010 h1        1 MOL      0.073702
     70 H30        -7.1560   -5.5610   -2.2690 hc        1 MOL      0.090320
     71 H31        -5.5450   -5.2790   -1.9900 hc        1 MOL      0.090320
     72 N7         -4.4950   -3.1660   -0.8010 n         1 MOL     -0.293694
     73 C23        -3.1680   -2.5880   -0.8050 c3        1 MOL     -0.091892
     74 C24        -2.2220   -2.9800    0.3100 c         1 MOL      0.652842
     75 O13        -2.2530   -4.1150    0.8890 o         1 MOL     -0.611586
     76 H32        -4.5610   -4.1660   -0.6640 hn        1 MOL      0.199769
     77 H33        -3.3150   -1.5250   -0.6360 h1        1 MOL      0.099118
     78 H34        -2.7620   -2.8060   -1.7890 h1        1 MOL      0.099118
     79 N8         -1.3020   -2.0050    0.6560 n         1 MOL     -0.544223
     80 C25        -0.5380   -1.8520    1.9120 c3        1 MOL      0.014746
     81 C26         0.4810   -0.7700    1.6600 c         1 MOL      0.577286
     82 O14         0.1570    0.2160    0.9930 o         1 MOL     -0.512881
     83 C27        -1.4230   -1.4800    3.1910 c3        1 MOL      0.116424
     84 C28        -2.3450   -0.2750    2.9780 c3        1 MOL     -0.335831
     85 O15        -2.3220   -2.5750    3.4640 oh        1 MOL     -0.476492
     86 H35        -1.1560   -1.2490   -0.0020 hn        1 MOL      0.301889
     87 H36         0.0290   -2.7620    2.1440 h1        1 MOL      0.059136
     88 H37        -0.8050   -1.2940    4.0770 h1        1 MOL      0.042520
     89 H38        -1.8100   -3.3880    3.5730 ho        1 MOL      0.304730
     90 H39        -1.8370    0.6770    3.1740 hc        1 MOL      0.145069
     91 H40        -2.6680   -0.2750    1.9430 hc        1 MOL      0.145069
     92 H41        -3.2530   -0.3180    3.5820 hc        1 MOL      0.145069
     93 N9          1.6290   -0.8850    2.2780 n         1 MOL     -0.353414
     94 C29         2.5640    0.2350    2.4250 c3        1 MOL     -0.224323
     95 C30         3.6140    0.1640    1.2450 c         1 MOL      0.521089
     96 O16         4.1680    1.1970    0.8640 o         1 MOL     -0.512290
     97 C31         3.2360    0.1060    3.8090 c3        1 MOL      0.234271
     98 C32         2.2230   -0.0330    4.9900 c3        1 MOL     -0.119388
     99 C33         3.9490    1.4830    4.1200 c3        1 MOL     -0.326592
    100 C34         2.7520   -0.4590    6.3570 c3        1 MOL     -0.151493
    101 H42         1.8240   -1.6980    2.8380 hn        1 MOL      0.244494
    102 H43         2.0760    1.2110    2.3780 h1        1 MOL      0.173295
    103 H44         4.0200   -0.6590    3.8380 hc        1 MOL     -0.007398
    104 H45         1.4970   -0.7690    4.6560 hc        1 MOL      0.044441
    105 H46         1.6830    0.9160    5.0340 hc        1 MOL      0.044441
    106 H47         4.7680    1.7120    3.4350 hc        1 MOL      0.094713
    107 H48         3.2730    2.3000    3.8950 hc        1 MOL      0.094713
    108 H49         4.3730    1.4570    5.1260 hc        1 MOL      0.094713
    109 H50         1.9700   -0.7550    7.0660 hc        1 MOL      0.052255
    110 H51         3.3520   -1.3600    6.3280 hc        1 MOL      0.052255
    111 H52         3.2960    0.3780    6.7970 hc        1 MOL      0.052255
    112 N10         3.8010   -1.0120    0.6910 n         1 MOL     -0.301451
    113 C35         4.8550   -1.2880   -0.3070 c3        1 MOL     -0.069523
    114 C36         5.9140   -2.2830    0.2760 c         1 MOL      0.575580
    115 O17         5.5330   -3.0090    1.1800 o         1 MOL     -0.550927
    116 C37         4.2710   -1.8150   -1.6930 c3        1 MOL      0.532622
    117 C38         2.9110   -1.2790   -2.1210 c3        1 MOL     -0.281745
    118 O18         5.0710   -1.5650   -2.8590 oh        1 MOL     -0.687480
    119 H53         3.2060   -1.7950    0.8730 hn        1 MOL      0.192620
    120 H54         5.3450   -0.3560   -0.5730 h1        1 MOL      0.049515
    121 H55         4.2140   -2.9030   -1.6130 h1        1 MOL     -0.009768
    122 H56         4.8990   -0.6890   -3.1920 ho        1 MOL      0.411641
    123 H57         2.5980   -1.6680   -3.0890 hc        1 MOL      0.064514
    124 H58         2.1610   -1.5980   -1.3960 hc        1 MOL      0.064514
    125 H59         3.0330   -0.1980   -2.1170 hc        1 MOL      0.064514
    126 N11         7.1530   -2.2900   -0.1610 n         1 MOL     -0.383586
    127 C39         8.2800   -3.2510    0.1650 c3        1 MOL     -0.297625
    128 C40         9.6910   -2.6470    0.1810 c         1 MOL      0.736111
    129 O19        10.5360   -3.1360    0.8140 o         1 MOL     -0.544616
    130 C41         8.1780   -4.5590   -0.6920 c3        1 MOL      0.438112
    131 C42         8.4590   -4.3240   -2.1130 c3        1 MOL     -0.340636
    132 O20         6.9110   -5.1020   -0.5930 oh        1 MOL     -0.581078
    133 H60         7.3520   -1.6500   -0.9160 hn        1 MOL      0.226376
    134 H61         8.0020   -3.6480    1.1490 h1        1 MOL      0.143936
    135 H62         8.8570   -5.2820   -0.2540 h1        1 MOL     -0.021624
    136 H63         6.8520   -5.4480    0.3080 ho        1 MOL      0.388225
    137 H64         7.6100   -3.8430   -2.6000 hc        1 MOL      0.095360
    138 H65         9.3180   -3.6940   -2.3290 hc        1 MOL      0.095360
    139 H66         8.5940   -5.3350   -2.5010 hc        1 MOL      0.095360
    140 N12         9.9280   -1.4690   -0.4820 n         1 MOL     -0.533729
    141 C43        11.1710   -0.6950   -0.6070 c3        1 MOL     -0.017695
    142 C44        10.9800    0.6470   -1.2310 c         1 MOL      0.431610
    143 O21        10.4560    0.8370   -2.3220 o         1 MOL     -0.496627
    144 C45        12.1550   -1.4550   -1.5450 c3        1 MOL     -0.234501
    145 C46        13.5480   -0.7920   -1.8050 c3        1 MOL      0.154594
    146 C47        14.3210   -1.6780   -2.7150 c3        1 MOL      0.060025
    147 C48        15.6950   -1.0300   -2.9540 c3        1 MOL      0.069282
    148 N13        16.4250   -1.7800   -3.9530 n4        1 MOL     -0.175766
    149 H67         9.1780   -1.1650   -1.0940 hn        1 MOL      0.316885
    150 H68        11.6840   -0.6060    0.3560 h1        1 MOL      0.121461
    151 H69        11.7190   -1.5350   -2.5400 hc        1 MOL      0.084073
    152 H70        12.2940   -2.4660   -1.1540 hc        1 MOL      0.084073
    153 H71        14.1310   -0.7570   -0.8890 hc        1 MOL     -0.007867
    154 H72        13.4430    0.1910   -2.2470 hc        1 MOL     -0.007867
    155 H73        13.7930   -1.7710   -3.6660 hc        1 MOL     -0.012067
    156 H74        14.4380   -2.6570   -2.2550 hc        1 MOL     -0.012067
    157 H75        16.2870   -1.0060   -2.0470 hx        1 MOL      0.061706
    158 H76        15.5140    0.0030   -3.2720 hx        1 MOL      0.061706
    159 H77        17.3670   -1.4450   -4.0360 hn        1 MOL      0.224144
    160 H78        16.4130   -2.7770   -3.7760 hn        1 MOL      0.224144
    161 H79        16.1040   -1.6740   -4.9090 hn        1 MOL      0.224144
    162 N14        11.4200    1.6950   -0.5380 n         1 MOL     -0.463881
    163 C49        11.0380    3.1490   -0.8400 c3        1 MOL      0.210753
    164 C50         9.6720    3.5840   -0.3870 c         1 MOL      0.471676
    165 O22         8.9780    4.1880   -1.1500 o         1 MOL     -0.538139
    166 C51        12.1230    3.9350   -0.0730 c3        1 MOL      0.222992
    167 C52        13.5630    3.6930   -0.6250 c3        1 MOL     -0.237877
    168 C53        14.5330    4.6660    0.0450 c         1 MOL      0.622487
    169 O23        15.4030    4.2530    0.8260 o         1 MOL     -0.646682
    170 O24        14.2510    5.8840   -0.0280 o         1 MOL     -0.646682
    171 H80        11.8150    1.4710    0.3680 hn        1 MOL      0.288138
    172 H81        11.0430    3.4380   -1.8880 h1        1 MOL      0.055038
    173 H82        12.1000    3.5890    0.9630 hc        1 MOL     -0.021295
    174 H83        11.8630    4.9890   -0.0070 hc        1 MOL     -0.021295
    175 H84        13.4360    3.8750   -1.6860 hc        1 MOL     -0.001400
    176 H85        13.8470    2.6670   -0.4060 hc        1 MOL     -0.001400
    177 N15         9.0590    3.2090    0.7750 n         1 MOL     -0.427244
    178 C54         9.6930    2.9250    2.0280 c3        1 MOL     -0.060723
    179 H86         9.4980    3.7400    2.7250 h1        1 MOL      0.052590
    180 H87         9.2930    1.9960    2.4350 h1        1 MOL      0.052590
    181 H88        10.7670    2.8240    1.8780 h1        1 MOL      0.052590
    182 H89         8.0640    3.3740    0.7070 hn        1 MOL      0.308669
    183 Ca1        -7.6050    3.5430   -2.4310 Ca        1 MOL      1.715374
    184 O25        -7.0700    2.3150   -4.8430 oh        1 MOL     -0.819511
    185 H90        -7.4840    1.4760   -5.0400 ho        1 MOL      0.409922
    186 H91        -6.2510    2.3040   -5.3300 ho        1 MOL      0.409922
    187 O26       -10.0420    3.6260   -3.9320 oh        1 MOL     -0.819511
    188 H92       -10.6500    2.9690   -4.2660 ho        1 MOL      0.409922
    189 H93        -9.6370    3.9970   -4.7210 ho        1 MOL      0.409922
    190 O27        -6.2850    1.2870   -1.5470 oh        1 MOL     -0.819511
    191 H94        -5.7660    1.5840   -0.8020 ho        1 MOL      0.409922
    192 H95        -6.2720    0.3330   -1.4740 ho        1 MOL      0.409922
    193 O28        -5.1340    3.9900   -2.9440 oh        1 MOL     -0.819511
    194 H96        -4.7460    4.2120   -2.0970 ho        1 MOL      0.409922
    195 H97        -4.5790    4.4570   -3.5810 ho        1 MOL      0.409922
    196 O29        -7.3830    5.1790   -4.4810 oh        1 MOL     -0.819511
    197 H98        -6.7660    5.8880   -4.3200 ho        1 MOL      0.409922
    198 H99        -7.1820    4.8760   -5.3620 ho        1 MOL      0.409922
    199 O30        -8.8770    5.8020   -1.6690 oh        1 MOL     -0.819511
    200 H100       -8.7000    6.5890   -1.1560 ho        1 MOL      0.409922
    201 H101       -9.8210    5.6630   -1.5800 ho        1 MOL      0.409922
@<TRIPOS>BOND
     1    1    2 1   
     2    1    4 1   
     3    1    5 1   
     4    1    6 1   
     5    2    3 2   
     6    2    7 1   
     7    7    8 1   
     8    7   15 1   
     9    8    9 1   
    10    8   11 1   
    11    8   16 1   
    12    9   10 2   
    13    9   19 1   
    14   11   12 1   
    15   11   17 1   
    16   11   18 1   
    17   12   13 1   
    18   12   14 1   
    19   19   20 1   
    20   19   28 1   
    21   20   21 1   
    22   20   23 1   
    23   20   29 1   
    24   21   22 2   
    25   21   41 1   
    26   23   24 1   
    27   23   30 1   
    28   23   31 1   
    29   24   25 1   
    30   24   32 1   
    31   24   33 1   
    32   25   26 1   
    33   25   34 1   
    34   25   35 1   
    35   26   27 1   
    36   26   36 1   
    37   26   37 1   
    38   27   38 1   
    39   27   39 1   
    40   27   40 1   
    41   41   42 1   
    42   41   49 1   
    43   42   43 1   
    44   42   45 1   
    45   42   50 1   
    46   43   44 2   
    47   43   53 1   
    48   45   46 1   
    49   45   51 1   
    50   45   52 1   
    51   46   47 1   
    52   46   48 1   
    53   53   54 1   
    54   53   57 1   
    55   54   55 1   
    56   54   58 1   
    57   54   59 1   
    58   55   56 2   
    59   55   60 1   
    60   60   61 1   
    61   60   68 1   
    62   61   62 1   
    63   61   64 1   
    64   61   69 1   
    65   62   63 2   
    66   62   72 1   
    67   64   65 1   
    68   64   70 1   
    69   64   71 1   
    70   65   66 1   
    71   65   67 1   
    72   72   73 1   
    73   72   76 1   
    74   73   74 1   
    75   73   77 1   
    76   73   78 1   
    77   74   75 2   
    78   74   79 1   
    79   79   80 1   
    80   79   86 1   
    81   80   81 1   
    82   80   83 1   
    83   80   87 1   
    84   81   82 2   
    85   81   93 1   
    86   83   84 1   
    87   83   85 1   
    88   83   88 1   
    89   84   90 1   
    90   84   91 1   
    91   84   92 1   
    92   85   89 1   
    93   93   94 1   
    94   93  101 1   
    95   94   95 1   
    96   94   97 1   
    97   94  102 1   
    98   95   96 2   
    99   95  112 1   
   100   97   98 1   
   101   97   99 1   
   102   97  103 1   
   103   98  100 1   
   104   98  104 1   
   105   98  105 1   
   106   99  106 1   
   107   99  107 1   
   108   99  108 1   
   109  100  109 1   
   110  100  110 1   
   111  100  111 1   
   112  112  113 1   
   113  112  119 1   
   114  113  114 1   
   115  113  116 1   
   116  113  120 1   
   117  114  115 2   
   118  114  126 1   
   119  116  117 1   
   120  116  118 1   
   121  116  121 1   
   122  117  123 1   
   123  117  124 1   
   124  117  125 1   
   125  118  122 1   
   126  126  127 1   
   127  126  133 1   
   128  127  128 1   
   129  127  130 1   
   130  127  134 1   
   131  128  129 2   
   132  128  140 1   
   133  130  131 1   
   134  130  132 1   
   135  130  135 1   
   136  131  137 1   
   137  131  138 1   
   138  131  139 1   
   139  132  136 1   
   140  140  141 1   
   141  140  149 1   
   142  141  142 1   
   143  141  144 1   
   144  141  150 1   
   145  142  143 2   
   146  142  162 1   
   147  144  145 1   
   148  144  151 1   
   149  144  152 1   
   150  145  146 1   
   151  145  153 1   
   152  145  154 1   
   153  146  147 1   
   154  146  155 1   
   155  146  156 1   
   156  147  148 1   
   157  147  157 1   
   158  147  158 1   
   159  148  159 1   
   160  148  160 1   
   161  148  161 1   
   162  162  163 1   
   163  162  171 1   
   164  163  164 1   
   165  163  166 1   
   166  163  172 1   
   167  164  165 2   
   168  164  177 1   
   169  166  167 1   
   170  166  173 1   
   171  166  174 1   
   172  167  168 1   
   173  167  175 1   
   174  167  176 1   
   175  168  169 1   
   176  168  170 1   
   177  177  178 1   
   178  177  182 1   
   179  178  179 1   
   180  178  180 1   
   181  178  181 1   
   182  184  185 1   
   183  184  186 1   
   184  187  188 1   
   185  187  189 1   
   186  190  191 1   
   187  190  192 1   
   188  193  194 1   
   189  193  195 1   
   190  196  197 1   
   191  196  198 1   
   192  199  200 1   
   193  199  201 1   
@<TRIPOS>SUBSTRUCTURE
     1 MOL         1 TEMP              0 ****  ****    0 ROOT
