@<TRIPOS>MOLECULE
MOL
  178   175     1     0     0
SMALL
resp


@<TRIPOS>ATOM
      1 C1         -1.7910    6.5060    1.4240 c3        1 MOL     -0.420043
      2 C2         -3.1330    6.3040    0.7690 c         1 MOL      0.696808
      3 O1         -3.3870    6.5310   -0.4090 o         1 MOL     -0.603138
      4 H1         -1.1360    5.6720    1.1730 hc        1 MOL      0.105827
      5 H2         -1.3480    7.4360    1.0670 hc        1 MOL      0.105827
      6 H3         -1.9180    6.5540    2.5050 hc        1 MOL      0.105827
      7 N1         -4.1490    5.7590    1.4720 n         1 MOL     -0.522781
      8 C3         -5.4760    5.5990    0.9360 c3        1 MOL      0.118856
      9 C4         -5.6520    4.3010    0.1310 c         1 MOL      0.523395
     10 O2         -5.8690    3.2510    0.6920 o         1 MOL     -0.505666
     11 C5         -6.5330    5.6550    2.1280 c3        1 MOL     -0.376536
     12 C6         -7.9720    5.4400    1.6920 c         1 MOL      0.828754
     13 O3         -8.2930    5.5340    0.4760 o         1 MOL     -0.757479
     14 O4         -8.8340    5.2090    2.5530 o         1 MOL     -0.757479
     15 H4         -3.9560    5.3500    2.3770 hn        1 MOL      0.288977
     16 H5         -5.7500    6.3980    0.2530 h1        1 MOL      0.056412
     17 H6         -6.5340    6.6260    2.6110 hc        1 MOL      0.065716
     18 H7         -6.2980    4.9390    2.9110 hc        1 MOL      0.065716
     19 N2         -5.7380    4.4350   -1.1790 n         1 MOL     -0.444118
     20 C7         -5.7120    3.3670   -2.1700 c3        1 MOL      0.271520
     21 C8         -4.3020    2.6880   -2.1490 c         1 MOL      0.493605
     22 O5         -3.2540    3.3490   -1.9290 o         1 MOL     -0.541609
     23 C9         -5.9820    4.0310   -3.5080 c3        1 MOL     -0.424219
     24 H8         -5.6610    5.3730   -1.5450 hn        1 MOL      0.280903
     25 H9         -6.5010    2.6480   -1.9520 h1        1 MOL      0.078316
     26 H10        -7.0010    4.4190   -3.5340 hc        1 MOL      0.109791
     27 H11        -5.3100    4.8890   -3.5930 hc        1 MOL      0.109791
     28 H12        -6.0050    3.3830   -4.3830 hc        1 MOL      0.109791
     29 N3         -4.1610    1.4030   -2.5430 n         1 MOL     -0.396439
     30 C10        -5.0990    0.4080   -3.1240 c3        1 MOL      0.015358
     31 C11        -5.9000   -0.3090   -1.9800 c         1 MOL      0.436374
     32 O6         -5.3940   -0.4410   -0.8350 o         1 MOL     -0.490878
     33 C12        -4.3010   -0.6500   -3.9070 c3        1 MOL     -0.155325
     34 C13        -3.0380   -1.1680   -3.2740 c         1 MOL      0.816454
     35 O7         -1.8830   -0.9430   -3.7650 o         1 MOL     -0.783347
     36 O8         -2.9760   -1.8090   -2.2220 o         1 MOL     -0.783347
     37 H13        -3.1890    1.1160   -2.6320 hn        1 MOL      0.239665
     38 H14        -5.9290    0.7230   -3.7600 h1        1 MOL      0.045263
     39 H15        -4.0670   -0.2010   -4.8780 hc        1 MOL      0.037556
     40 H16        -4.9250   -1.5080   -4.1700 hc        1 MOL      0.037556
     41 N4         -7.1250   -0.7830   -2.2800 n         1 MOL     -0.419633
     42 C14        -8.0670   -1.3430   -1.2670 c3        1 MOL      0.051178
     43 C15        -8.0120   -0.6010    0.0300 c         1 MOL      0.409344
     44 O9         -8.4870    0.5340    0.0740 o         1 MOL     -0.437989
     45 H17        -7.4220   -0.6750   -3.2440 hn        1 MOL      0.290252
     46 H18        -7.9390   -2.4240   -1.1720 h1        1 MOL      0.037808
     47 H19        -9.0720   -1.1910   -1.6850 h1        1 MOL      0.037808
     48 N5         -7.5780   -1.2670    1.1230 n         1 MOL     -0.331800
     49 C16        -6.9130   -2.5620    1.2630 c3        1 MOL      0.041224
     50 C17        -5.8650   -2.6230    2.3780 c         1 MOL      0.499952
     51 O10        -6.1620   -2.0770    3.4320 o         1 MOL     -0.498957
     52 C18        -8.0070   -3.6620    1.3570 c3        1 MOL     -0.345193
     53 C19        -7.3820   -5.0740    1.4400 c         1 MOL      0.691804
     54 N6         -6.6880   -5.4610    0.4600 n         1 MOL     -0.767643
     55 O11        -7.5440   -5.7800    2.4050 o         1 MOL     -0.570183
     56 H20        -7.6160   -0.7880    2.0130 hn        1 MOL      0.285571
     57 H21        -6.2510   -2.7720    0.4220 h1        1 MOL      0.048126
     58 H22        -8.6380   -3.6740    0.4790 hc        1 MOL      0.113086
     59 H23        -8.7050   -3.5700    2.1990 hc        1 MOL      0.113086
     60 H24        -6.6780   -4.8760   -0.3680 hn        1 MOL      0.355298
     61 H25        -6.0070   -6.2060    0.5190 hn        1 MOL      0.355298
     62 N7         -4.7320   -3.3040    2.2890 n         1 MOL     -0.195101
     63 C20        -3.6260   -3.2860    3.2830 c3        1 MOL     -0.500662
     64 C21        -2.2840   -3.8160    2.7980 c         1 MOL      0.680013
     65 O12        -1.5380   -4.1440    3.7300 o         1 MOL     -0.543691
     66 H26        -4.5310   -3.7320    1.3960 hn        1 MOL      0.152572
     67 H27        -3.9690   -3.9020    4.1120 h1        1 MOL      0.216460
     68 H28        -3.5000   -2.2850    3.6890 h1        1 MOL      0.216460
     69 N8         -2.0080   -4.0560    1.5090 n         1 MOL     -0.530986
     70 C22        -0.7540   -4.5510    0.9470 c3        1 MOL      0.085033
     71 C23         0.4320   -3.6130    0.9200 c         1 MOL      0.581762
     72 O13         0.2090   -2.4540    0.5570 o         1 MOL     -0.631068
     73 C24        -0.8980   -5.0610   -0.5480 c3        1 MOL      0.385153
     74 C25        -1.7690   -6.2050   -0.6220 c3        1 MOL     -0.097927
     75 O14        -1.2280   -4.0330   -1.4230 oh        1 MOL     -0.681031
     76 H29        -2.6170   -3.5250    0.8930 hn        1 MOL      0.361090
     77 H30        -0.4780   -5.4180    1.5330 h1        1 MOL      0.045640
     78 H31         0.0700   -5.5200   -0.7390 h1        1 MOL     -0.008361
     79 H32        -1.1660   -4.3220   -2.3310 ho        1 MOL      0.426793
     80 H33        -1.3230   -6.9670    0.0330 hc        1 MOL      0.013555
     81 H34        -2.7900   -6.0340   -0.2720 hc        1 MOL      0.013555
     82 H35        -1.8350   -6.6650   -1.6090 hc        1 MOL      0.013555
     83 N9          1.6370   -4.1520    1.0960 n         1 MOL     -0.519216
     84 C26         2.8960   -3.4380    1.1550 c3        1 MOL     -0.105795
     85 C27         3.6220   -3.6420   -0.1540 c         1 MOL      0.431334
     86 O15         3.7340   -4.7880   -0.6780 o         1 MOL     -0.520878
     87 C28         3.6420   -4.0670    2.3630 c3        1 MOL      0.106213
     88 C29         5.1330   -3.6970    2.5510 c3        1 MOL     -0.105398
     89 C30         2.8530   -3.7510    3.6790 c3        1 MOL     -0.335705
     90 C31         5.3820   -2.1490    2.4850 c3        1 MOL     -0.167500
     91 H36         1.6300   -5.1390    0.9270 hn        1 MOL      0.297511
     92 H37         2.6610   -2.4040    1.3860 h1        1 MOL      0.349804
     93 H38         3.6610   -5.1520    2.2350 hc        1 MOL      0.029393
     94 H39         5.6610   -4.2460    1.7790 hc        1 MOL      0.045855
     95 H40         5.4390   -4.0910    3.5190 hc        1 MOL      0.045855
     96 H41         2.8330   -2.6800    3.9080 hc        1 MOL      0.083765
     97 H42         1.8040   -4.0300    3.5680 hc        1 MOL      0.083765
     98 H43         3.2760   -4.3060    4.5190 hc        1 MOL      0.083765
     99 H44         4.8000   -1.7280    1.6660 hc        1 MOL      0.036947
    100 H45         4.9730   -1.7930    3.4320 hc        1 MOL      0.036947
    101 H46         6.4430   -1.9190    2.5360 hc        1 MOL      0.036947
    102 N10         3.9220   -2.5290   -0.8440 n         1 MOL     -0.064349
    103 C32         4.5660   -2.4530   -2.1410 c3        1 MOL     -0.241755
    104 C33         5.8600   -1.5300   -2.0640 c         1 MOL      0.644324
    105 O16         6.8220   -1.6220   -2.8720 o         1 MOL     -0.557503
    106 C34         3.5640   -1.8820   -3.1650 c3        1 MOL     -0.011895
    107 C35         2.3030   -2.7450   -3.3310 c         1 MOL      0.674072
    108 O17         2.1520   -3.6130   -4.1900 o         1 MOL     -0.682690
    109 O18         1.2880   -2.3680   -2.7010 o         1 MOL     -0.682690
    110 H47         3.5120   -1.6520   -0.5180 hn        1 MOL      0.024504
    111 H48         4.8780   -3.4920   -2.3110 h1        1 MOL      0.130763
    112 H49         4.1280   -1.8120   -4.0870 hc        1 MOL      0.011524
    113 H50         3.4550   -0.8170   -2.9380 hc        1 MOL      0.011524
    114 N11         5.9310   -0.7090   -0.9440 n         1 MOL     -0.757079
    115 C36         7.1330    0.1230   -0.7540 c3        1 MOL      0.645021
    116 C37         6.6180    1.5510   -0.2820 c         1 MOL      0.125034
    117 O19         7.0360    1.9660    0.8370 o         1 MOL     -0.446726
    118 C38         8.2010   -0.4970    0.1100 c3        1 MOL     -0.287036
    119 C39         9.6430    0.0790   -0.0600 ca        1 MOL      0.146863
    120 C40        10.3820   -0.0820   -1.2200 ca        1 MOL     -0.194780
    121 C41        10.1600    0.7980    1.0590 ca        1 MOL     -0.194780
    122 C42        11.6010    0.6360   -1.4140 ca        1 MOL     -0.106975
    123 C43        11.3990    1.4220    0.8780 ca        1 MOL     -0.106975
    124 C44        12.0500    1.4280   -0.3430 ca        1 MOL     -0.120414
    125 H51         5.1390   -0.5970   -0.3260 hn        1 MOL      0.391804
    126 H52         7.5870    0.3170   -1.7280 h1        1 MOL     -0.071086
    127 H53         8.2530   -1.5850    0.0170 hc        1 MOL      0.081510
    128 H54         7.9410   -0.3280    1.1590 hc        1 MOL      0.081510
    129 H55         9.8930   -0.6800   -1.9790 ha        1 MOL      0.138087
    130 H56         9.5740    1.0120    1.9420 ha        1 MOL      0.138087
    131 H57        12.2010    0.4630   -2.2950 ha        1 MOL      0.103189
    132 H58        11.6800    2.1040    1.6600 ha        1 MOL      0.103189
    133 H59        13.0770    1.7600   -0.4020 ha        1 MOL      0.083319
    134 N12         5.7570    2.2790   -1.1210 n         1 MOL     -0.065100
    135 C45         5.4550    3.6590   -0.8820 c3        1 MOL      0.098542
    136 C46         4.7170    3.8300    0.4920 c         1 MOL      0.169649
    137 O20         4.6940    4.9950    0.9170 o         1 MOL     -0.463890
    138 C47         4.5230    4.1110   -2.0320 c3        1 MOL     -0.117641
    139 C48         4.6150    2.9960   -3.0670 c3        1 MOL      0.078816
    140 C49         5.3290    1.8430   -2.4230 c3        1 MOL     -0.041968
    141 H60         6.3990    4.1880   -0.9700 h1        1 MOL      0.062879
    142 H61         3.5430    4.0290   -1.5640 hc        1 MOL      0.053399
    143 H62         4.8030    5.0930   -2.4120 hc        1 MOL      0.053399
    144 H63         3.6400    2.7090   -3.4680 hc        1 MOL     -0.012604
    145 H64         5.1370    3.2900   -3.9790 hc        1 MOL     -0.012604
    146 H65         4.6680    0.9970   -2.2080 h1        1 MOL      0.064262
    147 H66         6.0940    1.4820   -3.1100 h1        1 MOL      0.064262
    148 N13         4.1230    2.8010    1.1220 n         1 MOL     -0.078795
    149 C50         3.4440    2.9120    2.4520 c3        1 MOL     -0.112706
    150 C51         4.5010    3.2900    3.5180 c         1 MOL      0.400351
    151 O21         4.3310    4.1450    4.3840 o         1 MOL     -0.530880
    152 C52         2.8770    1.5160    2.7510 c3        1 MOL      0.119721
    153 C53         1.7720    0.9630    1.8270 c3        1 MOL     -0.368533
    154 C54         2.2220    0.4280    0.4670 c         1 MOL      0.540664
    155 O22         1.3180    0.2660   -0.4100 o         1 MOL     -0.695880
    156 O23         3.4220    0.1270    0.2860 o         1 MOL     -0.695880
    157 H67         4.0340    1.9080    0.6630 hn        1 MOL      0.330402
    158 H68         2.6740    3.6790    2.4890 h1        1 MOL      0.109722
    159 H69         2.3790    1.6370    3.7100 hc        1 MOL     -0.015962
    160 H70         3.7300    0.8490    2.8240 hc        1 MOL     -0.015962
    161 H71         1.0670    1.7960    1.7180 hc        1 MOL      0.139313
    162 H72         1.2960    0.1080    2.3050 hc        1 MOL      0.139313
    163 N14         5.7050    2.6910    3.4590 n         1 MOL     -0.111718
    164 C55         6.7840    2.7080    4.4450 c3        1 MOL     -0.206528
    165 H73         6.9560    1.6960    4.8130 h1        1 MOL      0.089125
    166 H74         7.6950    3.0860    3.9800 h1        1 MOL      0.089125
    167 H75         6.5060    3.3540    5.2780 h1        1 MOL      0.089125
    168 H76         5.7360    2.0690    2.6700 hn        1 MOL      0.148380
    169 Ca1        -0.5350   -1.1460   -1.4110 Ca        1 MOL      1.727330
    170 O24        -2.6640   -0.9360    0.3450 oh        1 MOL     -0.779846
    171 H77        -2.8420   -0.1390    0.8320 ho        1 MOL      0.392384
    172 H78        -3.5290   -1.3020    0.1420 ho        1 MOL      0.392384
    173 O25        -1.4170    1.3750   -1.6000 oh        1 MOL     -0.779846
    174 H79        -1.8680    2.0560   -1.1070 ho        1 MOL      0.392384
    175 H80        -1.3600    1.7330   -2.4970 ho        1 MOL      0.392384
    176 O26         1.0780    0.8510   -3.0130 oh        1 MOL     -0.779846
    177 H81         1.6320    0.7680   -2.2390 ho        1 MOL      0.392384
    178 H82         1.0080    1.7980   -3.1690 ho        1 MOL      0.392384
@<TRIPOS>BOND
     1    1    2 1   
     2    1    4 1   
     3    1    5 1   
     4    1    6 1   
     5    2    3 2   
     6    2    7 1   
     7    7    8 1   
     8    7   15 1   
     9    8    9 1   
    10    8   11 1   
    11    8   16 1   
    12    9   10 2   
    13    9   19 1   
    14   11   12 1   
    15   11   17 1   
    16   11   18 1   
    17   12   13 1   
    18   12   14 1   
    19   19   20 1   
    20   19   24 1   
    21   20   21 1   
    22   20   23 1   
    23   20   25 1   
    24   21   22 2   
    25   21   29 1   
    26   23   26 1   
    27   23   27 1   
    28   23   28 1   
    29   29   30 1   
    30   29   37 1   
    31   30   31 1   
    32   30   33 1   
    33   30   38 1   
    34   31   32 2   
    35   31   41 1   
    36   33   34 1   
    37   33   39 1   
    38   33   40 1   
    39   34   35 1   
    40   34   36 1   
    41   41   42 1   
    42   41   45 1   
    43   42   43 1   
    44   42   46 1   
    45   42   47 1   
    46   43   44 2   
    47   43   48 1   
    48   48   49 1   
    49   48   56 1   
    50   49   50 1   
    51   49   52 1   
    52   49   57 1   
    53   50   51 2   
    54   50   62 1   
    55   52   53 1   
    56   52   58 1   
    57   52   59 1   
    58   53   54 1   
    59   53   55 2   
    60   54   60 1   
    61   54   61 1   
    62   62   63 1   
    63   62   66 1   
    64   63   64 1   
    65   63   67 1   
    66   63   68 1   
    67   64   65 2   
    68   64   69 1   
    69   69   70 1   
    70   69   76 1   
    71   70   71 1   
    72   70   73 1   
    73   70   77 1   
    74   71   72 2   
    75   71   83 1   
    76   73   74 1   
    77   73   75 1   
    78   73   78 1   
    79   74   80 1   
    80   74   81 1   
    81   74   82 1   
    82   75   79 1   
    83   83   84 1   
    84   83   91 1   
    85   84   85 1   
    86   84   87 1   
    87   84   92 1   
    88   85   86 2   
    89   85  102 1   
    90   87   88 1   
    91   87   89 1   
    92   87   93 1   
    93   88   90 1   
    94   88   94 1   
    95   88   95 1   
    96   89   96 1   
    97   89   97 1   
    98   89   98 1   
    99   90   99 1   
   100   90  100 1   
   101   90  101 1   
   102  102  103 1   
   103  102  110 1   
   104  103  104 1   
   105  103  106 1   
   106  103  111 1   
   107  104  105 2   
   108  104  114 1   
   109  106  107 1   
   110  106  112 1   
   111  106  113 1   
   112  107  108 1   
   113  107  109 1   
   114  114  115 1   
   115  114  125 1   
   116  115  116 1   
   117  115  118 1   
   118  115  126 1   
   119  116  117 2   
   120  116  134 1   
   121  118  119 1   
   122  118  127 1   
   123  118  128 1   
   124  119  120 ar  
   125  119  121 ar  
   126  120  122 ar  
   127  120  129 1   
   128  121  123 ar  
   129  121  130 1   
   130  122  124 ar  
   131  122  131 1   
   132  123  124 ar  
   133  123  132 1   
   134  124  133 1   
   135  134  135 1   
   136  134  140 1   
   137  135  136 1   
   138  135  138 1   
   139  135  141 1   
   140  136  137 2   
   141  136  148 1   
   142  138  139 1   
   143  138  142 1   
   144  138  143 1   
   145  139  140 1   
   146  139  144 1   
   147  139  145 1   
   148  140  146 1   
   149  140  147 1   
   150  148  149 1   
   151  148  157 1   
   152  149  150 1   
   153  149  152 1   
   154  149  158 1   
   155  150  151 2   
   156  150  163 1   
   157  152  153 1   
   158  152  159 1   
   159  152  160 1   
   160  153  154 1   
   161  153  161 1   
   162  153  162 1   
   163  154  155 1   
   164  154  156 1   
   165  163  164 1   
   166  163  168 1   
   167  164  165 1   
   168  164  166 1   
   169  164  167 1   
   170  170  171 1   
   171  170  172 1   
   172  173  174 1   
   173  173  175 1   
   174  176  177 1   
   175  176  178 1   
@<TRIPOS>SUBSTRUCTURE
     1 MOL         1 TEMP              0 ****  ****    0 ROOT
