@<TRIPOS>MOLECULE
MOL
  175   173     1     0     0
SMALL
resp


@<TRIPOS>ATOM
      1 C1         -6.8680    7.6260    1.7090 c3        1 MOL     -0.373771
      2 C2         -7.7570    6.7450    0.8080 c         1 MOL      0.801993
      3 O1         -7.6910    6.8940   -0.3800 o         1 MOL     -0.584379
      4 H1         -6.6620    7.1000    2.6420 hc        1 MOL      0.084271
      5 H2         -5.9290    7.8390    1.1990 hc        1 MOL      0.084271
      6 H3         -7.3840    8.5620    1.9260 hc        1 MOL      0.084271
      7 N1         -8.4990    5.7540    1.3970 n         1 MOL     -0.790019
      8 C3         -9.3340    4.8830    0.5330 c3        1 MOL      0.509320
      9 C4         -8.6880    3.6330   -0.1350 c         1 MOL      0.400085
     10 O2         -9.3000    2.6430   -0.5220 o         1 MOL     -0.466749
     11 C5        -10.6530    4.6070    1.2700 c3        1 MOL     -0.338330
     12 C6        -11.7780    4.0960    0.4400 c         1 MOL      0.710555
     13 O3        -12.0070    4.5450   -0.6920 o         1 MOL     -0.718209
     14 O4        -12.4830    3.1170    0.8520 o         1 MOL     -0.718209
     15 H4         -8.5610    5.5700    2.3830 hn        1 MOL      0.352182
     16 H5         -9.6860    5.5430   -0.2540 h1        1 MOL     -0.014641
     17 H6        -11.0580    5.5200    1.6880 hc        1 MOL      0.034055
     18 H7        -10.5960    3.9920    2.1720 hc        1 MOL      0.034055
     19 N2         -7.3880    3.6940   -0.2760 n         1 MOL     -0.619771
     20 C7         -6.5590    2.6850   -0.8710 c3        1 MOL      0.727021
     21 C8         -5.3540    2.1530   -0.0500 c         1 MOL      0.210876
     22 O5         -4.8440    2.8170    0.8640 o         1 MOL     -0.507175
     23 C9         -6.1450    3.2370   -2.2350 c3        1 MOL     -0.410173
     24 H8         -6.8910    4.5170    0.0230 hn        1 MOL      0.265021
     25 H9         -7.2300    1.8480   -1.0880 h1        1 MOL     -0.106075
     26 H10        -5.5100    4.1200   -2.1360 hc        1 MOL      0.096761
     27 H11        -5.7510    2.4160   -2.8510 hc        1 MOL      0.096761
     28 H12        -7.0170    3.6210   -2.7580 hc        1 MOL      0.096761
     29 N3         -4.7960    0.9500   -0.3480 n         1 MOL     -0.165834
     30 C10        -5.2700   -0.0350   -1.2470 c3        1 MOL     -0.366589
     31 C11        -5.3960   -1.4080   -0.5440 c         1 MOL      0.622700
     32 O6         -4.5790   -1.7480    0.2870 o         1 MOL     -0.525616
     33 C12        -4.3670   -0.1190   -2.4990 c3        1 MOL     -0.052381
     34 C13        -2.9490   -0.3900   -2.0420 c         1 MOL      0.616860
     35 O7         -2.4940   -1.5640   -2.2650 o         1 MOL     -0.696219
     36 O8         -2.2170    0.4020   -1.3870 o         1 MOL     -0.696219
     37 H13        -3.9940    0.7490    0.2160 hn        1 MOL      0.258734
     38 H14        -6.2480    0.2790   -1.6080 h1        1 MOL      0.162332
     39 H15        -4.3040    0.8310   -3.0360 hc        1 MOL      0.039242
     40 H16        -4.7180   -0.7820   -3.2870 hc        1 MOL      0.039242
     41 N4         -6.3490   -2.2360   -1.0210 n         1 MOL     -0.468525
     42 C14        -6.5560   -3.6120   -0.6300 c3        1 MOL      0.110395
     43 C15        -6.2940   -4.5880   -1.7220 c         1 MOL      0.588558
     44 O9         -7.2480   -5.0910   -2.2990 o         1 MOL     -0.570068
     45 H17        -6.9320   -1.9740   -1.7980 hn        1 MOL      0.312677
     46 H18        -7.6060   -3.8170   -0.3930 h1        1 MOL      0.027103
     47 H19        -5.8860   -3.7790    0.2090 h1        1 MOL      0.027103
     48 N5         -5.0730   -4.9600   -2.1150 n         1 MOL     -0.568260
     49 C16        -3.7810   -4.6250   -1.5060 c3        1 MOL      0.129933
     50 C17        -3.6580   -5.4600   -0.2180 c         1 MOL      0.538592
     51 O10        -4.1450   -6.6030   -0.0700 o         1 MOL     -0.555661
     52 C18        -2.6140   -4.8080   -2.5340 c3        1 MOL     -0.104296
     53 C19        -1.1960   -4.3940   -2.0970 c         1 MOL      0.440897
     54 N6         -0.1650   -4.5640   -2.8260 n         1 MOL     -0.592242
     55 O11        -1.0810   -3.8930   -0.9580 o         1 MOL     -0.555798
     56 H20        -4.9990   -5.7110   -2.7800 hn        1 MOL      0.318146
     57 H21        -3.7150   -3.5480   -1.2740 h1        1 MOL      0.052622
     58 H22        -2.8010   -4.2280   -3.4440 hc        1 MOL      0.047407
     59 H23        -2.7040   -5.8600   -2.7960 hc        1 MOL      0.047407
     60 H24        -0.2120   -4.7320   -3.8120 hn        1 MOL      0.331362
     61 H25         0.7140   -4.3180   -2.3800 hn        1 MOL      0.331362
     62 N7         -3.1350   -4.8120    0.8760 n         1 MOL     -0.304131
     63 C20        -3.0120   -5.3390    2.2100 c3        1 MOL     -0.126570
     64 C21        -1.5540   -5.6450    2.5770 c         1 MOL      0.584614
     65 O12        -1.2760   -6.2750    3.5560 o         1 MOL     -0.585081
     66 H26        -2.7140   -3.9220    0.6670 hn        1 MOL      0.262481
     67 H27        -3.6590   -6.1990    2.3820 h1        1 MOL      0.082198
     68 H28        -3.3280   -4.5850    2.9400 h1        1 MOL      0.082198
     69 N8         -0.5980   -5.1920    1.7250 n         1 MOL     -0.294550
     70 C22         0.8170   -5.3160    2.0250 c3        1 MOL     -0.037073
     71 C23         1.4140   -3.8810    1.7960 c         1 MOL      0.423839
     72 O13         0.8670   -3.0840    1.0950 o         1 MOL     -0.366782
     73 C24         1.5780   -6.3190    1.2130 c3        1 MOL      0.402252
     74 C25         1.4240   -7.8030    1.5150 c3        1 MOL     -0.409604
     75 O14         1.2670   -6.2120   -0.1660 oh        1 MOL     -0.659338
     76 H29        -0.7930   -4.5740    0.9540 hn        1 MOL      0.199159
     77 H30         0.9940   -5.5720    3.0720 h1        1 MOL      0.048032
     78 H31         2.6450   -6.1430    1.3750 h1        1 MOL     -0.010374
     79 H32         1.8250   -5.4900   -0.4760 ho        1 MOL      0.486978
     80 H33         1.8440   -8.1000    2.4780 hc        1 MOL      0.099289
     81 H34         0.3500   -8.0160    1.4560 hc        1 MOL      0.099289
     82 H35         1.9730   -8.3700    0.7750 hc        1 MOL      0.099289
     83 N9          2.4180   -3.5660    2.6020 n         1 MOL     -0.490093
     84 C26         3.1840   -2.3270    2.4310 c3        1 MOL      0.029690
     85 C27         4.2170   -2.7010    1.3200 c         1 MOL      0.308550
     86 O15         4.9460   -3.6510    1.5060 o         1 MOL     -0.556592
     87 C28         3.8180   -1.9200    3.8390 c3        1 MOL      0.328689
     88 C29         4.2010   -0.4440    3.9440 c3        1 MOL     -0.242063
     89 C30         2.7240   -1.9520    4.9000 c3        1 MOL     -0.424819
     90 C31         5.2980    0.0280    2.9560 c3        1 MOL     -0.153921
     91 H36         2.7690   -4.2230    3.2730 hn        1 MOL      0.294138
     92 H37         2.6350   -1.4690    2.0530 h1        1 MOL      0.043305
     93 H38         4.6530   -2.5500    4.1690 hc        1 MOL     -0.004954
     94 H39         4.5950   -0.2440    4.9440 hc        1 MOL      0.074822
     95 H40         3.4220    0.2840    3.7030 hc        1 MOL      0.074822
     96 H41         1.8400   -1.3370    4.7120 hc        1 MOL      0.091588
     97 H42         2.4470   -2.9770    5.1530 hc        1 MOL      0.091588
     98 H43         3.1210   -1.6390    5.8660 hc        1 MOL      0.091588
     99 H44         4.7910    0.3110    2.0390 hc        1 MOL      0.042721
    100 H45         5.9340    0.7830    3.4080 hc        1 MOL      0.042721
    101 H46         5.9540   -0.8380    2.8940 hc        1 MOL      0.042721
    102 N10         4.0970   -1.9920    0.2350 n         1 MOL     -0.016580
    103 C32         4.8150   -2.2340   -1.0460 c3        1 MOL     -0.016617
    104 C33         6.0220   -1.2950   -1.2990 c         1 MOL      0.443523
    105 O16         6.9800   -1.6270   -1.9980 o         1 MOL     -0.536040
    106 C34         3.7860   -2.3760   -2.1890 c3        1 MOL     -0.067151
    107 C35         2.6410   -3.2610   -1.9260 c         1 MOL      0.743334
    108 O17         2.8000   -4.4520   -1.6060 o         1 MOL     -0.743925
    109 O18         1.5420   -2.7180   -1.7800 o         1 MOL     -0.743925
    110 H47         3.4370   -1.2370    0.3490 hn        1 MOL      0.258687
    111 H48         5.1970   -3.2510   -1.0080 h1        1 MOL      0.090171
    112 H49         4.2880   -2.7420   -3.0890 hc        1 MOL     -0.010123
    113 H50         3.4760   -1.3650   -2.4540 hc        1 MOL     -0.010123
    114 N11         5.9930   -0.0930   -0.7090 n         1 MOL     -0.216497
    115 C36         6.8790    1.0490   -0.9140 c3        1 MOL      0.265400
    116 C37         6.1700    2.3720   -0.4920 c         1 MOL      0.313026
    117 O19         5.6320    2.3410    0.6550 o         1 MOL     -0.474545
    118 C38         8.1450    0.9100   -0.1140 c3        1 MOL     -0.271211
    119 C39         9.2060    1.8220   -0.6310 ca        1 MOL      0.123906
    120 C40         9.4810    3.0050    0.0130 ca        1 MOL     -0.121616
    121 C41         9.9040    1.4580   -1.8020 ca        1 MOL     -0.121616
    122 C42        10.6080    3.7780   -0.3500 ca        1 MOL     -0.163971
    123 C43        11.0580    2.2070   -2.1680 ca        1 MOL     -0.163971
    124 C44        11.3860    3.3830   -1.4580 ca        1 MOL     -0.096391
    125 H51         5.3420    0.0740    0.0490 hn        1 MOL      0.037439
    126 H52         7.0210    1.0640   -1.9930 h1        1 MOL     -0.010726
    127 H53         8.4650   -0.1110   -0.3570 hc        1 MOL      0.099055
    128 H54         7.9680    0.9760    0.9630 hc        1 MOL      0.099055
    129 H55         8.8540    3.2900    0.8410 ha        1 MOL      0.112481
    130 H56         9.5530    0.5790   -2.3240 ha        1 MOL      0.112481
    131 H57        10.8690    4.6660    0.2010 ha        1 MOL      0.115375
    132 H58        11.5600    2.0060   -3.0970 ha        1 MOL      0.115375
    133 H59        12.1640    4.0490   -1.7830 ha        1 MOL      0.099837
    134 N12         6.1400    3.3990   -1.3820 n         1 MOL     -0.173373
    135 C45         5.8290    4.8200   -1.0700 c3        1 MOL      0.154563
    136 C46         4.5080    5.2080   -0.3650 c         1 MOL      0.321265
    137 O20         4.3380    6.3200    0.0960 o         1 MOL     -0.543268
    138 C47         5.9250    5.6580   -2.2930 c3        1 MOL     -0.104809
    139 C48         7.0360    4.9040   -3.0860 c3        1 MOL      0.007571
    140 C49         6.8080    3.4460   -2.7010 c3        1 MOL     -0.087272
    141 H60         6.6210    5.1990   -0.4100 h1        1 MOL      0.046971
    142 H61         4.9990    5.5960   -2.8700 hc        1 MOL      0.065327
    143 H62         6.2480    6.6810   -2.1150 hc        1 MOL      0.065327
    144 H63         7.0110    5.1590   -4.1460 hc        1 MOL      0.019804
    145 H64         8.0160    5.0690   -2.6340 hc        1 MOL      0.019804
    146 H65         6.0910    3.1170   -3.4440 h1        1 MOL      0.071439
    147 H66         7.7770    2.9470   -2.7280 h1        1 MOL      0.071439
    148 N13         3.5970    4.3300   -0.1860 n         1 MOL     -0.190862
    149 C50         2.3280    4.5480    0.5350 c3        1 MOL     -0.086522
    150 C51         2.4880    5.1400    1.9600 c         1 MOL      0.579948
    151 O21         1.6200    5.8500    2.4250 o         1 MOL     -0.547309
    152 C52         1.4730    3.2600    0.6380 c3        1 MOL     -0.327660
    153 C53         2.2480    2.0250    1.1400 c3        1 MOL      0.012173
    154 C54         1.5130    0.7500    0.6600 c         1 MOL      0.771305
    155 O22         2.1520   -0.0620   -0.0050 o         1 MOL     -0.767225
    156 O23         0.3620    0.4580    1.0540 o         1 MOL     -0.767225
    157 H67         3.7850    3.3720   -0.4380 hn        1 MOL      0.163703
    158 H68         1.8200    5.4010    0.0730 h1        1 MOL      0.116310
    159 H69         1.1020    3.0590   -0.3680 hc        1 MOL      0.131931
    160 H70         0.5800    3.4280    1.2370 hc        1 MOL      0.131931
    161 H71         2.3600    2.0850    2.2220 hc        1 MOL      0.020165
    162 H72         3.2760    2.0370    0.7620 hc        1 MOL      0.020165
    163 N14         3.5510    4.7810    2.7190 n         1 MOL     -0.187002
    164 C55         3.7790    5.1770    4.0850 c3        1 MOL     -0.217036
    165 H73         4.1840    6.1890    4.1070 h1        1 MOL      0.088079
    166 H74         2.8380    5.1510    4.6350 h1        1 MOL      0.088079
    167 H75         4.4900    4.4920    4.5490 h1        1 MOL      0.088079
    168 H76         4.3720    4.4110    2.2500 hn        1 MOL      0.210030
    169 Ca1        -0.2640   -1.3370   -0.6500 Ca        1 MOL      1.721309
    170 O24         0.4410    0.1990   -2.7350 oh        1 MOL     -0.886893
    171 H77         1.0400   -0.1920   -3.3800 ho        1 MOL      0.429045
    172 H78         0.2610    1.0750   -3.0730 ho        1 MOL      0.429045
    173 O25        -1.9390   -1.6530    1.4590 oh        1 MOL     -0.886893
    174 H79        -2.7270   -1.2640    1.0800 ho        1 MOL      0.429045
    175 H80        -1.9550   -1.3860    2.3710 ho        1 MOL      0.429045
@<TRIPOS>BOND
     1    1    2 1   
     2    1    4 1   
     3    1    5 1   
     4    1    6 1   
     5    2    3 2   
     6    2    7 1   
     7    7    8 1   
     8    7   15 1   
     9    8    9 1   
    10    8   11 1   
    11    8   16 1   
    12    9   10 2   
    13    9   19 1   
    14   11   12 1   
    15   11   17 1   
    16   11   18 1   
    17   12   13 1   
    18   12   14 1   
    19   19   20 1   
    20   19   24 1   
    21   20   21 1   
    22   20   23 1   
    23   20   25 1   
    24   21   22 2   
    25   21   29 1   
    26   23   26 1   
    27   23   27 1   
    28   23   28 1   
    29   29   30 1   
    30   29   37 1   
    31   30   31 1   
    32   30   33 1   
    33   30   38 1   
    34   31   32 2   
    35   31   41 1   
    36   33   34 1   
    37   33   39 1   
    38   33   40 1   
    39   34   35 1   
    40   34   36 1   
    41   41   42 1   
    42   41   45 1   
    43   42   43 1   
    44   42   46 1   
    45   42   47 1   
    46   43   44 2   
    47   43   48 1   
    48   48   49 1   
    49   48   56 1   
    50   49   50 1   
    51   49   52 1   
    52   49   57 1   
    53   50   51 2   
    54   50   62 1   
    55   52   53 1   
    56   52   58 1   
    57   52   59 1   
    58   53   54 1   
    59   53   55 2   
    60   54   60 1   
    61   54   61 1   
    62   62   63 1   
    63   62   66 1   
    64   63   64 1   
    65   63   67 1   
    66   63   68 1   
    67   64   65 2   
    68   64   69 1   
    69   69   70 1   
    70   69   76 1   
    71   70   71 1   
    72   70   73 1   
    73   70   77 1   
    74   71   72 2   
    75   71   83 1   
    76   73   74 1   
    77   73   75 1   
    78   73   78 1   
    79   74   80 1   
    80   74   81 1   
    81   74   82 1   
    82   75   79 1   
    83   83   84 1   
    84   83   91 1   
    85   84   85 1   
    86   84   87 1   
    87   84   92 1   
    88   85   86 2   
    89   85  102 1   
    90   87   88 1   
    91   87   89 1   
    92   87   93 1   
    93   88   90 1   
    94   88   94 1   
    95   88   95 1   
    96   89   96 1   
    97   89   97 1   
    98   89   98 1   
    99   90   99 1   
   100   90  100 1   
   101   90  101 1   
   102  102  103 1   
   103  102  110 1   
   104  103  104 1   
   105  103  106 1   
   106  103  111 1   
   107  104  105 2   
   108  104  114 1   
   109  106  107 1   
   110  106  112 1   
   111  106  113 1   
   112  107  108 1   
   113  107  109 1   
   114  114  115 1   
   115  114  125 1   
   116  115  116 1   
   117  115  118 1   
   118  115  126 1   
   119  116  117 2   
   120  116  134 1   
   121  118  119 1   
   122  118  127 1   
   123  118  128 1   
   124  119  120 ar  
   125  119  121 ar  
   126  120  122 ar  
   127  120  129 1   
   128  121  123 ar  
   129  121  130 1   
   130  122  124 ar  
   131  122  131 1   
   132  123  124 ar  
   133  123  132 1   
   134  124  133 1   
   135  134  135 1   
   136  134  140 1   
   137  135  136 1   
   138  135  138 1   
   139  135  141 1   
   140  136  137 2   
   141  136  148 1   
   142  138  139 1   
   143  138  142 1   
   144  138  143 1   
   145  139  140 1   
   146  139  144 1   
   147  139  145 1   
   148  140  146 1   
   149  140  147 1   
   150  148  149 1   
   151  148  157 1   
   152  149  150 1   
   153  149  152 1   
   154  149  158 1   
   155  150  151 2   
   156  150  163 1   
   157  152  153 1   
   158  152  159 1   
   159  152  160 1   
   160  153  154 1   
   161  153  161 1   
   162  153  162 1   
   163  154  155 1   
   164  154  156 1   
   165  163  164 1   
   166  163  168 1   
   167  164  165 1   
   168  164  166 1   
   169  164  167 1   
   170  170  171 1   
   171  170  172 1   
   172  173  174 1   
   173  173  175 1   
@<TRIPOS>SUBSTRUCTURE
     1 MOL         1 TEMP              0 ****  ****    0 ROOT
