@<TRIPOS>MOLECULE
MOL
  188   182     1     0     0
SMALL
resp


@<TRIPOS>ATOM
      1 C1         -4.3040    2.8870    3.6600 c3        1 MOL     -0.379924
      2 C2         -5.7160    2.7290    3.1410 c         1 MOL      0.599198
      3 O1         -6.2180    1.6620    2.7820 o         1 MOL     -0.521896
      4 H1         -3.5970    2.6540    2.8650 hc        1 MOL      0.094552
      5 H2         -4.1510    3.9140    3.9920 hc        1 MOL      0.094552
      6 H3         -4.1450    2.2080    4.4970 hc        1 MOL      0.094552
      7 N1         -6.4500    3.8220    3.3010 n         1 MOL     -0.474199
      8 C3         -7.7950    3.9460    2.7190 c3        1 MOL      0.357458
      9 C4         -7.9390    3.6550    1.2330 c         1 MOL      0.297574
     10 O2         -8.9160    2.9710    0.8460 o         1 MOL     -0.430893
     11 C5         -8.7750    3.1160    3.5590 c3        1 MOL     -0.369523
     12 C6        -10.1940    3.8070    3.5000 c         1 MOL      0.724399
     13 O3        -11.1430    3.3330    4.1650 o         1 MOL     -0.667287
     14 O4        -10.3250    4.8400    2.8370 o         1 MOL     -0.667287
     15 H4         -5.9260    4.6280    3.6120 hn        1 MOL      0.273814
     16 H5         -8.0210    5.0060    2.8350 h1        1 MOL     -0.018988
     17 H6         -8.4450    3.2880    4.5800 hc        1 MOL      0.108753
     18 H7         -8.7960    2.0750    3.2240 hc        1 MOL      0.108753
     19 N2         -7.0350    4.1300    0.3630 n         1 MOL     -0.425027
     20 C7         -7.2600    3.9970   -1.1020 c3        1 MOL      0.095535
     21 C8         -7.0590    2.5480   -1.4810 c         1 MOL      0.371921
     22 O5         -7.5020    2.1790   -2.5930 o         1 MOL     -0.547015
     23 C9         -6.2250    4.8650   -1.8390 c3        1 MOL      0.079112
     24 C10        -6.5140    6.3500   -1.7010 c3        1 MOL      0.049065
     25 C11        -7.8780    6.9300   -2.1060 c3        1 MOL     -0.023732
     26 C12        -8.3970    6.4850   -3.5250 c3        1 MOL      0.158262
     27 N3         -9.8260    6.9750   -3.7690 n4        1 MOL     -0.377611
     28 H8         -6.1870    4.5350    0.7090 hn        1 MOL      0.237724
     29 H9         -8.2920    4.2060   -1.3400 h1        1 MOL      0.120925
     30 H10        -6.3410    4.5770   -2.8790 hc        1 MOL     -0.010334
     31 H11        -5.2080    4.6820   -1.4790 hc        1 MOL     -0.010334
     32 H12        -5.8040    6.7730   -2.4210 hc        1 MOL     -0.003648
     33 H13        -6.2860    6.7350   -0.7100 hc        1 MOL     -0.003648
     34 H14        -7.7400    8.0110   -2.0830 hc        1 MOL      0.026462
     35 H15        -8.5500    6.5990   -1.3230 hc        1 MOL      0.026462
     36 H16        -8.3480    5.3910   -3.5720 hx        1 MOL      0.028424
     37 H17        -7.7560    6.8900   -4.2970 hx        1 MOL      0.028424
     38 H18       -10.4760    6.3620   -3.3090 hn        1 MOL      0.283809
     39 H19        -9.9320    7.9750   -3.7050 hn        1 MOL      0.283809
     40 H20       -10.0640    6.8680   -4.7440 hn        1 MOL      0.283809
     41 N4         -6.3440    1.7140   -0.6840 n         1 MOL     -0.067736
     42 C13        -5.4890    0.5620   -1.1510 c3        1 MOL     -0.236421
     43 C14        -6.2110   -0.7770   -0.9560 c         1 MOL      0.562192
     44 O6         -6.9000   -0.9240    0.0170 o         1 MOL     -0.431559
     45 C15        -4.0940    0.6390   -0.4410 c3        1 MOL     -0.108303
     46 C16        -3.3240   -0.4970   -1.0470 c         1 MOL      0.561709
     47 O7         -3.4130   -1.6870   -0.6480 o         1 MOL     -0.652167
     48 O8         -2.4880   -0.3120   -1.9560 o         1 MOL     -0.652167
     49 H21        -6.1390    1.9740    0.2730 hn        1 MOL      0.122147
     50 H22        -5.3340    0.7610   -2.2160 h1        1 MOL      0.088395
     51 H23        -4.1870    0.4430    0.6330 hc        1 MOL      0.096080
     52 H24        -3.5820    1.5870   -0.5640 hc        1 MOL      0.096080
     53 N5         -6.0450   -1.7940   -1.8270 n         1 MOL     -0.187094
     54 C17        -6.8080   -2.9750   -1.5870 c3        1 MOL     -0.541132
     55 C18        -6.4090   -3.9450   -0.4930 c         1 MOL      0.603269
     56 O9         -7.2270   -4.7640   -0.0230 o         1 MOL     -0.548266
     57 H25        -5.4900   -1.6610   -2.6520 hn        1 MOL      0.222301
     58 H26        -6.7570   -3.5810   -2.4870 h1        1 MOL      0.194201
     59 H27        -7.8140   -2.6130   -1.3570 h1        1 MOL      0.194201
     60 N6         -5.1400   -3.8670   -0.0700 n         1 MOL      0.015958
     61 C19        -4.5670   -4.9020    0.8950 c3        1 MOL     -0.411514
     62 C20        -3.4590   -4.4200    1.8600 c         1 MOL      0.551437
     63 O10        -3.0380   -5.1000    2.8460 o         1 MOL     -0.489892
     64 C21        -4.0880   -6.0980    0.0580 c3        1 MOL      0.396821
     65 C22        -2.9920   -5.8360   -0.9370 c         1 MOL      0.480459
     66 N7         -2.4630   -6.8600   -1.5990 n         1 MOL     -0.580524
     67 O11        -2.4280   -4.7510   -1.0200 o         1 MOL     -0.613107
     68 H28        -4.6480   -3.0930   -0.5000 hn        1 MOL     -0.089762
     69 H29        -5.3500   -5.3860    1.4890 h1        1 MOL      0.153338
     70 H30        -4.9280   -6.4380   -0.5530 hc        1 MOL     -0.048214
     71 H31        -3.9140   -6.9960    0.6610 hc        1 MOL     -0.048214
     72 H32        -2.9490   -7.7110   -1.3620 hn        1 MOL      0.268815
     73 H33        -1.6690   -6.7330   -2.2140 hn        1 MOL      0.268815
     74 N8         -3.0380   -3.1570    1.6120 n         1 MOL     -0.331070
     75 C23        -1.9380   -2.5330    2.2920 c3        1 MOL     -0.020213
     76 C24        -0.6220   -2.6300    1.5600 c         1 MOL      0.510902
     77 O12        -0.7130   -2.6280    0.3300 o         1 MOL     -0.436932
     78 H34        -3.4170   -2.7220    0.7860 hn        1 MOL      0.319407
     79 H35        -1.7260   -2.9600    3.2710 h1        1 MOL      0.064931
     80 H36        -2.1220   -1.4600    2.3830 h1        1 MOL      0.064931
     81 N9          0.5270   -2.6930    2.2620 n         1 MOL     -0.501366
     82 C25         1.8520   -3.0110    1.6140 c3        1 MOL      0.070516
     83 C26         2.7820   -1.8330    1.8570 c         1 MOL      0.719837
     84 O13         2.4090   -0.9270    2.6130 o         1 MOL     -0.523975
     85 C27         2.2700   -4.3490    2.2440 c3        1 MOL     -0.265795
     86 C28         1.5120   -5.5060    1.6360 ca        1 MOL     -0.082006
     87 C29         0.3850   -6.0160    2.3130 ca        1 MOL      0.113095
     88 C30         1.9380   -6.1520    0.4340 ca        1 MOL      0.113095
     89 C31        -0.4040   -6.9990    1.6840 ca        1 MOL     -0.567464
     90 C32         1.2440   -7.2990   -0.0620 ca        1 MOL     -0.567464
     91 C33         0.0260   -7.6660    0.5270 ca        1 MOL      0.670081
     92 O14        -0.6220   -8.7200    0.0780 oh        1 MOL     -0.504268
     93 H37         0.4380   -2.4020    3.2220 hn        1 MOL      0.331847
     94 H38         1.7690   -3.0650    0.5230 h1        1 MOL     -0.042147
     95 H39         1.9520   -4.2090    3.2800 hc        1 MOL      0.111515
     96 H40         3.3150   -4.6490    2.1820 hc        1 MOL      0.111515
     97 H41         0.0300   -5.5160    3.1990 ha        1 MOL      0.075922
     98 H42         2.8520   -5.8560   -0.0570 ha        1 MOL      0.075922
     99 H43        -1.2180   -7.4380    2.2220 ha        1 MOL      0.187426
    100 H44         1.5690   -7.8900   -0.9120 ha        1 MOL      0.187426
    101 H45        -0.1360   -9.2070   -0.5960 ho        1 MOL      0.359814
    102 N10         4.0690   -1.9210    1.4180 n         1 MOL     -0.534628
    103 C34         5.0010   -0.8430    1.5530 c3        1 MOL     -0.267261
    104 C35         5.8460   -0.6700    0.3160 c         1 MOL      0.744150
    105 O15         5.9790    0.4050   -0.1660 o         1 MOL     -0.491995
    106 C36         5.9690   -0.9640    2.7780 c3        1 MOL      0.021863
    107 C37         5.2200   -0.9360    4.0930 c3        1 MOL     -0.086094
    108 C38         7.1120    0.0550    2.8210 c3        1 MOL     -0.321404
    109 C39         4.6670    0.4290    4.4960 c3        1 MOL     -0.023992
    110 H46         4.4120   -2.8040    1.0700 hn        1 MOL      0.319423
    111 H47         4.4760    0.0970    1.6890 h1        1 MOL      0.204132
    112 H48         6.5420   -1.8970    2.8110 hc        1 MOL     -0.001856
    113 H49         5.8520   -1.2310    4.9360 hc        1 MOL      0.038731
    114 H50         4.3900   -1.6400    4.1210 hc        1 MOL      0.038731
    115 H51         7.9190   -0.2300    2.1430 hc        1 MOL      0.114206
    116 H52         6.6540    1.0140    2.5820 hc        1 MOL      0.114206
    117 H53         7.5370    0.0490    3.8270 hc        1 MOL      0.114206
    118 H54         5.4290    1.1870    4.6630 hc        1 MOL      0.023960
    119 H55         3.9770    0.7010    3.6880 hc        1 MOL      0.023960
    120 H56         4.1500    0.3520    5.4440 hc        1 MOL      0.023960
    121 N11         6.3530   -1.8270   -0.1370 n         1 MOL     -0.402100
    122 C40         7.1890   -1.8210   -1.3070 c3        1 MOL     -0.121049
    123 C41         8.6790   -1.2410   -1.2040 c         1 MOL      0.304525
    124 O16         9.2990   -0.9970   -2.2260 o         1 MOL     -0.464265
    125 C42         7.3760   -3.2430   -1.9000 c3        1 MOL      0.284450
    126 O17         6.1580   -3.6210   -2.4190 oh        1 MOL     -0.621839
    127 H57         5.9470   -2.7080    0.1150 hn        1 MOL      0.266547
    128 H58         6.8170   -1.0830   -2.0380 h1        1 MOL      0.153829
    129 H59         7.7890   -3.9670   -1.1940 h1        1 MOL      0.002340
    130 H60         8.1730   -3.2080   -2.6350 h1        1 MOL      0.002340
    131 H61         6.3350   -4.3720   -2.9850 ho        1 MOL      0.391882
    132 N12         9.0860   -0.8420   -0.0170 n         1 MOL     -0.141048
    133 C43        10.2520    0.0580    0.3000 c3        1 MOL      0.272989
    134 C44        10.3180    1.2660   -0.5710 c         1 MOL      0.445562
    135 O18        11.3250    1.7490   -1.0500 o         1 MOL     -0.503794
    136 C45        11.5040   -0.8030    0.3660 c3        1 MOL     -0.214324
    137 H62         8.4900   -1.1250    0.7530 hn        1 MOL      0.108012
    138 H63        10.1010    0.3680    1.3290 h1        1 MOL      0.006236
    139 H64        11.1460   -1.7630    0.7360 hc        1 MOL      0.052890
    140 H65        11.8970   -0.9530   -0.6420 hc        1 MOL      0.052890
    141 H66        12.2750   -0.3740    0.9970 hc        1 MOL      0.052890
    142 N13         9.0950    1.8670   -0.7580 n         1 MOL     -0.417937
    143 C46         8.7330    3.0790   -1.4550 c3        1 MOL      0.459854
    144 C47         7.8450    3.9450   -0.5740 c         1 MOL      0.487838
    145 O19         7.3180    3.5800    0.4750 o         1 MOL     -0.472221
    146 C48         8.0030    2.6720   -2.6880 c3        1 MOL     -0.230954
    147 H67         8.3090    1.3910   -0.3250 hn        1 MOL      0.038782
    148 H68         9.6370    3.6520   -1.6760 h1        1 MOL     -0.040546
    149 H69         7.1700    2.0090   -2.4550 hc        1 MOL      0.060352
    150 H70         7.6800    3.5170   -3.3060 hc        1 MOL      0.060352
    151 H71         8.6720    2.1350   -3.3580 hc        1 MOL      0.060352
    152 N14         7.8520    5.2710   -0.8920 n         1 MOL     -0.603270
    153 C49         7.1040    6.3110   -0.2450 c3        1 MOL     -0.020773
    154 C50         7.3640    6.5280    1.2620 c         1 MOL      0.417159
    155 O20         6.6270    7.2470    1.9660 o         1 MOL     -0.498811
    156 C51         5.5220    6.1040   -0.4900 c3        1 MOL      0.278030
    157 C52         5.0700    6.0780   -1.8920 c3        1 MOL     -0.225763
    158 C53         3.5580    5.9460   -2.0110 c         1 MOL      0.712984
    159 O21         2.8620    6.6500   -1.2830 o         1 MOL     -0.658995
    160 O22         2.9620    5.2520   -2.8800 o         1 MOL     -0.658995
    161 H72         8.2790    5.5350   -1.7710 hn        1 MOL      0.316659
    162 H73         7.3900    7.2950   -0.6330 h1        1 MOL      0.089324
    163 H74         5.1570    6.9390    0.1180 hc        1 MOL     -0.026388
    164 H75         5.0390    5.2600    0.0220 hc        1 MOL     -0.026388
    165 H76         5.3890    5.1420   -2.3380 hc        1 MOL      0.001746
    166 H77         5.4060    6.8920   -2.5370 hc        1 MOL      0.001746
    167 N15         8.4840    6.0100    1.7200 n         1 MOL     -0.275905
    168 C54         8.7210    5.8800    3.1780 c3        1 MOL     -0.096152
    169 H78         7.7680    5.9180    3.7050 h1        1 MOL      0.073585
    170 H79         9.2110    4.9280    3.3830 h1        1 MOL      0.073585
    171 H80         9.3560    6.6970    3.5180 h1        1 MOL      0.073585
    172 H81         8.9710    5.4520    1.0290 hn        1 MOL      0.211737
    173 Ca1        -1.3790   -2.5560   -2.2290 Ca        1 MOL      1.718113
    174 O23        -1.1360   -4.2160   -4.5310 oh        1 MOL     -0.756902
    175 H82        -0.4910   -4.7500   -5.0020 ho        1 MOL      0.360694
    176 H83        -1.9180   -4.2600   -5.0740 ho        1 MOL      0.360694
    177 O24         0.5260   -4.3380   -1.9350 oh        1 MOL     -0.756902
    178 H84         1.3090   -4.3620   -2.4840 ho        1 MOL      0.360694
    179 H85         0.7050   -4.9840   -1.2410 ho        1 MOL      0.360694
    180 O25         0.5300   -0.6290   -1.7340 oh        1 MOL     -0.756902
    181 H86         0.0400    0.0150   -1.2220 ho        1 MOL      0.360694
    182 H87         1.4460   -0.4550   -1.5330 ho        1 MOL      0.360694
    183 O26        -0.7970   -1.0980   -4.3420 oh        1 MOL     -0.756902
    184 H88        -0.1090   -1.2450   -4.9870 ho        1 MOL      0.360694
    185 H89        -1.5470   -0.8080   -4.8520 ho        1 MOL      0.360694
    186 O27        -3.7800   -3.4070   -3.4850 oh        1 MOL     -0.756902
    187 H90        -4.4100   -4.1220   -3.5710 ho        1 MOL      0.360694
    188 H91        -3.9890   -2.8150   -4.2040 ho        1 MOL      0.360694
@<TRIPOS>BOND
     1    1    2 1   
     2    1    4 1   
     3    1    5 1   
     4    1    6 1   
     5    2    3 2   
     6    2    7 1   
     7    7    8 1   
     8    7   15 1   
     9    8    9 1   
    10    8   11 1   
    11    8   16 1   
    12    9   10 2   
    13    9   19 1   
    14   11   12 1   
    15   11   17 1   
    16   11   18 1   
    17   12   13 1   
    18   12   14 1   
    19   19   20 1   
    20   19   28 1   
    21   20   21 1   
    22   20   23 1   
    23   20   29 1   
    24   21   22 2   
    25   21   41 1   
    26   23   24 1   
    27   23   30 1   
    28   23   31 1   
    29   24   25 1   
    30   24   32 1   
    31   24   33 1   
    32   25   26 1   
    33   25   34 1   
    34   25   35 1   
    35   26   27 1   
    36   26   36 1   
    37   26   37 1   
    38   27   38 1   
    39   27   39 1   
    40   27   40 1   
    41   41   42 1   
    42   41   49 1   
    43   42   43 1   
    44   42   45 1   
    45   42   50 1   
    46   43   44 2   
    47   43   53 1   
    48   45   46 1   
    49   45   51 1   
    50   45   52 1   
    51   46   47 1   
    52   46   48 1   
    53   53   54 1   
    54   53   57 1   
    55   54   55 1   
    56   54   58 1   
    57   54   59 1   
    58   55   56 2   
    59   55   60 1   
    60   60   61 1   
    61   60   68 1   
    62   61   62 1   
    63   61   64 1   
    64   61   69 1   
    65   62   63 2   
    66   62   74 1   
    67   64   65 1   
    68   64   70 1   
    69   64   71 1   
    70   65   66 1   
    71   65   67 2   
    72   66   72 1   
    73   66   73 1   
    74   74   75 1   
    75   74   78 1   
    76   75   76 1   
    77   75   79 1   
    78   75   80 1   
    79   76   77 2   
    80   76   81 1   
    81   81   82 1   
    82   81   93 1   
    83   82   83 1   
    84   82   85 1   
    85   82   94 1   
    86   83   84 2   
    87   83  102 1   
    88   85   86 1   
    89   85   95 1   
    90   85   96 1   
    91   86   87 ar  
    92   86   88 ar  
    93   87   89 ar  
    94   87   97 1   
    95   88   90 ar  
    96   88   98 1   
    97   89   91 ar  
    98   89   99 1   
    99   90   91 ar  
   100   90  100 1   
   101   91   92 1   
   102   92  101 1   
   103  102  103 1   
   104  102  110 1   
   105  103  104 1   
   106  103  106 1   
   107  103  111 1   
   108  104  105 2   
   109  104  121 1   
   110  106  107 1   
   111  106  108 1   
   112  106  112 1   
   113  107  109 1   
   114  107  113 1   
   115  107  114 1   
   116  108  115 1   
   117  108  116 1   
   118  108  117 1   
   119  109  118 1   
   120  109  119 1   
   121  109  120 1   
   122  121  122 1   
   123  121  127 1   
   124  122  123 1   
   125  122  125 1   
   126  122  128 1   
   127  123  124 2   
   128  123  132 1   
   129  125  126 1   
   130  125  129 1   
   131  125  130 1   
   132  126  131 1   
   133  132  133 1   
   134  132  137 1   
   135  133  134 1   
   136  133  136 1   
   137  133  138 1   
   138  134  135 2   
   139  134  142 1   
   140  136  139 1   
   141  136  140 1   
   142  136  141 1   
   143  142  143 1   
   144  142  147 1   
   145  143  144 1   
   146  143  146 1   
   147  143  148 1   
   148  144  145 2   
   149  144  152 1   
   150  146  149 1   
   151  146  150 1   
   152  146  151 1   
   153  152  153 1   
   154  152  161 1   
   155  153  154 1   
   156  153  156 1   
   157  153  162 1   
   158  154  155 2   
   159  154  167 1   
   160  156  157 1   
   161  156  163 1   
   162  156  164 1   
   163  157  158 1   
   164  157  165 1   
   165  157  166 1   
   166  158  159 1   
   167  158  160 1   
   168  167  168 1   
   169  167  172 1   
   170  168  169 1   
   171  168  170 1   
   172  168  171 1   
   173  174  175 1   
   174  174  176 1   
   175  177  178 1   
   176  177  179 1   
   177  180  181 1   
   178  180  182 1   
   179  183  184 1   
   180  183  185 1   
   181  186  187 1   
   182  186  188 1   
@<TRIPOS>SUBSTRUCTURE
     1 MOL         1 TEMP              0 ****  ****    0 ROOT
