@<TRIPOS>MOLECULE
MOL
  188   182     1     0     0
SMALL
resp


@<TRIPOS>ATOM
      1 C1          6.6590    2.7860    0.8290 c3        1 MOL     -0.506862
      2 C2          7.1520    1.4100    0.5440 c         1 MOL      0.789107
      3 O1          6.4550    0.6070   -0.0810 o         1 MOL     -0.558197
      4 H1          5.8220    2.7350    1.5260 hc        1 MOL      0.129108
      5 H2          7.4630    3.3760    1.2700 hc        1 MOL      0.129108
      6 H3          6.3310    3.2550   -0.0980 hc        1 MOL      0.129108
      7 N1          8.3710    1.0170    1.0360 n         1 MOL     -0.661803
      8 C3          8.9550   -0.2820    0.6890 c3        1 MOL      0.158835
      9 C4          8.2020   -1.5990    1.0050 c         1 MOL      0.545492
     10 O2          8.3450   -2.5560    0.2280 o         1 MOL     -0.529332
     11 C5          9.5180   -0.1540   -0.8030 c3        1 MOL     -0.268433
     12 C6         10.4430    1.0390   -1.0760 c         1 MOL      0.792263
     13 O3         11.0580    1.5380   -0.1010 o         1 MOL     -0.676251
     14 O4         10.6710    1.4570   -2.2210 o         1 MOL     -0.676251
     15 H4          9.0110    1.7920    1.1410 hn        1 MOL      0.299455
     16 H5          9.8560   -0.4260    1.2760 h1        1 MOL      0.043813
     17 H6          8.7620   -0.2080   -1.5820 hc        1 MOL      0.072615
     18 H7         10.2360   -0.9760   -0.8470 hc        1 MOL      0.072615
     19 N2          7.3080   -1.5910    1.9930 n         1 MOL     -0.577141
     20 C7          6.5100   -2.7650    2.2550 c3        1 MOL      0.245301
     21 C8          5.1740   -2.8630    1.4250 c         1 MOL      0.468805
     22 O5          4.4210   -3.8140    1.6610 o         1 MOL     -0.543873
     23 C9          6.2200   -2.9750    3.7470 c3        1 MOL     -0.148354
     24 C10         6.5010   -4.4790    4.0950 c3        1 MOL      0.151532
     25 C11         5.8410   -4.7870    5.4270 c3        1 MOL     -0.370403
     26 C12         6.3150   -6.1620    5.8700 c3        1 MOL      0.244232
     27 N3          5.4770   -6.7630    6.9540 n4        1 MOL     -0.342517
     28 H8          7.2990   -0.8110    2.6310 hn        1 MOL      0.286135
     29 H9          7.0600   -3.6490    1.9260 h1        1 MOL      0.022310
     30 H10         5.2210   -2.6700    4.0450 hc        1 MOL      0.045872
     31 H11         7.0000   -2.4170    4.2770 hc        1 MOL      0.045872
     32 H12         7.5730   -4.6450    4.0710 hc        1 MOL      0.010252
     33 H13         6.1100   -5.1970    3.3780 hc        1 MOL      0.010252
     34 H14         4.8190   -4.7580    5.0280 hc        1 MOL      0.116341
     35 H15         6.0450   -3.9550    6.1000 hc        1 MOL      0.116341
     36 H16         7.3760   -6.0680    6.0880 hx        1 MOL      0.036728
     37 H17         6.3590   -6.8670    5.0350 hx        1 MOL      0.036728
     38 H18         5.8740   -7.6060    7.3470 hn        1 MOL      0.262510
     39 H19         5.3240   -6.1540    7.7410 hn        1 MOL      0.262510
     40 H20         4.5460   -6.8860    6.5940 hn        1 MOL      0.262510
     41 N4          4.8810   -1.9470    0.4940 n         1 MOL     -0.382472
     42 C13         3.6790   -2.0250   -0.4300 c3        1 MOL      0.175408
     43 C14         4.0900   -1.7630   -1.9080 c         1 MOL      0.446963
     44 O6          4.9370   -0.9110   -2.1920 o         1 MOL     -0.379843
     45 C15         2.5860   -1.0460    0.1130 c3        1 MOL     -0.345338
     46 C16         1.2670   -1.3700   -0.6020 c         1 MOL      0.863477
     47 O7          0.8790   -0.5930   -1.5500 o         1 MOL     -0.704048
     48 O8          0.5640   -2.3770   -0.2760 o         1 MOL     -0.704048
     49 H21         5.6250   -1.3490    0.1680 hn        1 MOL      0.241296
     50 H22         3.2350   -3.0170   -0.3340 h1        1 MOL      0.015470
     51 H23         2.8960   -0.0400   -0.1720 hc        1 MOL      0.078877
     52 H24         2.4850   -1.1320    1.1960 hc        1 MOL      0.078877
     53 N5          3.3700   -2.3620   -2.8530 n         1 MOL     -0.384565
     54 C17         3.7680   -2.3770   -4.2420 c3        1 MOL     -0.249421
     55 C18         3.4230   -1.0360   -4.9260 c         1 MOL      0.609217
     56 O9          3.8510   -0.8020   -6.0410 o         1 MOL     -0.581989
     57 H25         2.6120   -2.9460   -2.5490 hn        1 MOL      0.357547
     58 H26         3.1030   -3.1710   -4.5790 h1        1 MOL      0.135979
     59 H27         4.7990   -2.7130   -4.3270 h1        1 MOL      0.135979
     60 N6          2.6720   -0.2170   -4.2600 n         1 MOL     -0.056773
     61 C19         2.7370    1.2350   -4.5670 c3        1 MOL      0.111011
     62 C20         3.1530    2.0110   -3.2820 c         1 MOL      0.377854
     63 O10         4.1850    2.6610   -3.2430 o         1 MOL     -0.499744
     64 C21         1.3960    1.7020   -5.0820 c3        1 MOL     -0.555187
     65 C22         0.0890    1.2870   -4.3620 c         1 MOL      0.592678
     66 N7         -0.6250    2.2800   -3.8820 n         1 MOL     -0.696507
     67 O11        -0.2400    0.1090   -4.1690 o         1 MOL     -0.417914
     68 H28         2.2590   -0.6470   -3.4450 hn        1 MOL     -0.230340
     69 H29         3.5410    1.4820   -5.2580 h1        1 MOL      0.127645
     70 H30         1.2770    1.4010   -6.1270 hc        1 MOL      0.174160
     71 H31         1.4610    2.7960   -5.0870 hc        1 MOL      0.174160
     72 H32        -0.1590    3.1790   -3.8200 hn        1 MOL      0.321253
     73 H33        -1.4800    2.1400   -3.3760 hn        1 MOL      0.321253
     74 N8          2.4700    1.8490   -2.1380 n         1 MOL     -0.046586
     75 C23         2.5180    2.7310   -0.8920 c3        1 MOL     -0.188959
     76 C24         1.1730    3.3890   -0.5130 c         1 MOL      0.603660
     77 O12         0.4290    3.8250   -1.4080 o         1 MOL     -0.536043
     78 H34         1.8760    1.0260   -2.0750 hn        1 MOL      0.121368
     79 H35         3.2250    3.5190   -1.1450 h1        1 MOL      0.115004
     80 H36         2.8800    2.1000   -0.0750 h1        1 MOL      0.115004
     81 N9          1.0350    3.7390    0.7620 n         1 MOL     -0.597623
     82 C25        -0.2480    4.0750    1.3510 c3        1 MOL      0.479270
     83 C26        -1.1210    2.8670    1.5640 c         1 MOL      0.201997
     84 O13        -0.6190    1.7010    1.7100 o         1 MOL     -0.458671
     85 C27        -0.2430    5.0660    2.5650 c3        1 MOL     -0.141462
     86 C28         0.6940    6.3100    2.4610 ca        1 MOL      0.004650
     87 C29         0.6260    7.0690    1.2930 ca        1 MOL     -0.133389
     88 C30         1.5170    6.7490    3.4880 ca        1 MOL     -0.133389
     89 C31         1.2730    8.3320    1.2730 ca        1 MOL     -0.277222
     90 C32         2.2970    7.9250    3.4010 ca        1 MOL     -0.277222
     91 C33         2.2330    8.7310    2.2160 ca        1 MOL      0.372363
     92 O14         2.9760    9.8190    1.9700 oh        1 MOL     -0.452229
     93 H37         1.7610    3.4320    1.3940 hn        1 MOL      0.322224
     94 H38        -0.7600    4.6430    0.5680 h1        1 MOL     -0.055886
     95 H39         0.0280    4.4820    3.4360 hc        1 MOL      0.046497
     96 H40        -1.2570    5.4010    2.7670 hc        1 MOL      0.046497
     97 H41         0.0430    6.7350    0.4520 ha        1 MOL      0.132082
     98 H42         1.5010    6.2220    4.4290 ha        1 MOL      0.132082
     99 H43         1.1670    9.0010    0.4330 ha        1 MOL      0.150924
    100 H44         2.7960    8.3640    4.2510 ha        1 MOL      0.150924
    101 H45         2.7320   10.2360    1.1460 ho        1 MOL      0.356003
    102 N10        -2.4360    3.0980    1.6600 n         1 MOL     -0.362332
    103 C34        -3.3890    1.9770    1.8070 c3        1 MOL     -0.305355
    104 C35        -4.4270    1.9080    0.7600 c         1 MOL      0.302860
    105 O15        -4.5800    0.9090    0.0790 o         1 MOL     -0.341309
    106 C36        -3.8690    1.8130    3.2450 c3        1 MOL      0.143256
    107 C37        -2.7740    1.3930    4.1890 c3        1 MOL      0.022491
    108 C38        -4.9520    0.7050    3.3140 c3        1 MOL     -0.557154
    109 C39        -3.2250    1.2450    5.6770 c3        1 MOL     -0.126507
    110 H46        -2.7470    4.0430    1.5040 hn        1 MOL      0.281553
    111 H47        -2.8630    1.0510    1.5910 h1        1 MOL      0.243281
    112 H48        -4.2980    2.7400    3.6250 hc        1 MOL     -0.002668
    113 H49        -2.0480    2.2050    4.1800 hc        1 MOL      0.055758
    114 H50        -2.3410    0.4940    3.7410 hc        1 MOL      0.055758
    115 H51        -4.5480   -0.2890    3.1240 hc        1 MOL      0.153401
    116 H52        -5.4260    0.7370    4.2990 hc        1 MOL      0.153401
    117 H53        -5.7950    0.9290    2.6650 hc        1 MOL      0.153401
    118 H54        -2.3310    1.1230    6.2930 hc        1 MOL      0.039227
    119 H55        -3.6980    2.1870    5.9450 hc        1 MOL      0.039227
    120 H56        -4.0010    0.5070    5.8500 hc        1 MOL      0.039227
    121 N11        -5.1100    3.0750    0.6160 n         1 MOL     -0.036121
    122 C40        -5.9590    3.3110   -0.5520 c3        1 MOL     -0.567376
    123 C41        -7.1750    2.4390   -0.5340 c         1 MOL      0.767970
    124 O16        -7.6760    1.9910   -1.5820 o         1 MOL     -0.541613
    125 C42        -6.4000    4.8050   -0.6650 c3        1 MOL      0.238807
    126 O17        -7.2470    5.1650    0.3310 oh        1 MOL     -0.535258
    127 H57        -4.9020    3.7760    1.3100 hn        1 MOL      0.241567
    128 H58        -5.3440    2.9820   -1.3900 h1        1 MOL      0.158355
    129 H59        -7.0000    4.9490   -1.5730 h1        1 MOL      0.068067
    130 H60        -5.5570    5.4820   -0.7300 h1        1 MOL      0.068067
    131 H61        -6.7020    5.0980    1.1210 ho        1 MOL      0.344949
    132 N12        -7.6940    2.2100    0.6930 n         1 MOL     -0.338491
    133 C43        -8.7580    1.2890    1.0400 c3        1 MOL      0.131576
    134 C44        -8.5480   -0.1420    0.4110 c         1 MOL      0.367873
    135 O18        -9.5690   -0.8500    0.2740 o         1 MOL     -0.511614
    136 C45       -10.1070    1.9580    0.8420 c3        1 MOL     -0.296240
    137 H62        -7.1330    2.5510    1.4610 hn        1 MOL      0.189400
    138 H63        -8.6640    1.2210    2.1200 h1        1 MOL      0.088887
    139 H64       -10.8570    1.4170    1.4100 hc        1 MOL      0.096806
    140 H65       -10.0160    2.9690    1.2270 hc        1 MOL      0.096806
    141 H66       -10.4350    2.1140   -0.1870 hc        1 MOL      0.096806
    142 N13        -7.3730   -0.6010    0.0190 n         1 MOL     -0.264392
    143 C46        -7.1790   -1.8440   -0.7700 c3        1 MOL      0.420886
    144 C47        -6.3150   -2.8920   -0.0060 c         1 MOL      0.260426
    145 O19        -5.6900   -2.5650    0.9680 o         1 MOL     -0.396656
    146 C48        -6.5990   -1.4370   -2.1390 c3        1 MOL     -0.168964
    147 H67        -6.5690   -0.0110    0.1450 hn        1 MOL      0.000049
    148 H68        -8.1280   -2.3690   -0.9190 h1        1 MOL     -0.023961
    149 H69        -5.5520   -1.1250   -2.0570 hc        1 MOL      0.027926
    150 H70        -6.6260   -2.3770   -2.6970 hc        1 MOL      0.027926
    151 H71        -7.1710   -0.6440   -2.6140 hc        1 MOL      0.027926
    152 N14        -6.2060   -4.1620   -0.4480 n         1 MOL     -0.321941
    153 C49        -5.5340   -5.3270    0.2510 c3        1 MOL     -0.230100
    154 C50        -5.7660   -5.4390    1.7320 c         1 MOL      0.543540
    155 O20        -4.8940   -5.8440    2.4430 o         1 MOL     -0.489476
    156 C51        -4.0370   -5.3470   -0.2250 c3        1 MOL      0.384970
    157 C52        -3.8810   -5.4650   -1.6770 c3        1 MOL     -0.258988
    158 C53        -2.3750   -5.3070   -1.9010 c         1 MOL      0.452967
    159 O21        -1.8890   -4.1520   -2.1250 o         1 MOL     -0.594064
    160 O22        -1.6300   -6.3090   -1.7600 o         1 MOL     -0.594064
    161 H72        -6.7970   -4.4460   -1.2130 hn        1 MOL      0.282473
    162 H73        -5.9210   -6.2740   -0.1300 h1        1 MOL      0.093945
    163 H74        -3.5700   -6.2050    0.2580 hc        1 MOL     -0.013839
    164 H75        -3.6060   -4.4120    0.1320 hc        1 MOL     -0.013839
    165 H76        -4.5100   -4.7070   -2.1410 hc        1 MOL      0.021244
    166 H77        -4.1610   -6.4690   -1.9900 hc        1 MOL      0.021244
    167 N15        -6.9530   -5.0290    2.2800 n         1 MOL     -0.422707
    168 C54        -7.2800   -4.7680    3.6820 c3        1 MOL      0.010097
    169 H78        -8.2810   -5.1420    3.8970 h1        1 MOL      0.053199
    170 H79        -6.5580   -5.2750    4.3240 h1        1 MOL      0.053199
    171 H80        -7.2440   -3.6950    3.8710 h1        1 MOL      0.053199
    172 H81        -7.6470   -4.7160    1.6110 hn        1 MOL      0.250313
    173 Ca1        -1.3340   -1.6770   -2.1740 Ca        1 MOL      1.680946
    174 O23        -1.5330    0.4470   -0.5010 oh        1 MOL     -0.866344
    175 H82        -1.3900    0.8860    0.3400 ho        1 MOL      0.421238
    176 H83        -1.7670    1.1590   -1.1040 ho        1 MOL      0.421238
    177 O24        -3.2290   -1.7430   -0.1500 oh        1 MOL     -0.866344
    178 H84        -3.3360   -0.7990   -0.0700 ho        1 MOL      0.421238
    179 H85        -4.0700   -2.1060    0.1330 ho        1 MOL      0.421238
    180 O25        -2.8870    0.2900   -3.1190 oh        1 MOL     -0.866344
    181 H86        -3.6220    0.7270   -2.6770 ho        1 MOL      0.421238
    182 H87        -2.7870    0.7710   -3.9420 ho        1 MOL      0.421238
    183 O26        -2.3030   -2.3360   -4.6350 oh        1 MOL     -0.866344
    184 H88        -2.5340   -2.1170   -5.5320 ho        1 MOL      0.421238
    185 H89        -2.7480   -3.1730   -4.4680 ho        1 MOL      0.421238
    186 O27         0.4730   -3.1510   -3.6150 oh        1 MOL     -0.866344
    187 H90         0.3390   -2.8660   -4.5160 ho        1 MOL      0.421238
    188 H91         0.4300   -4.1130   -3.6530 ho        1 MOL      0.421238
@<TRIPOS>BOND
     1    1    2 1   
     2    1    4 1   
     3    1    5 1   
     4    1    6 1   
     5    2    3 2   
     6    2    7 1   
     7    7    8 1   
     8    7   15 1   
     9    8    9 1   
    10    8   11 1   
    11    8   16 1   
    12    9   10 2   
    13    9   19 1   
    14   11   12 1   
    15   11   17 1   
    16   11   18 1   
    17   12   13 1   
    18   12   14 1   
    19   19   20 1   
    20   19   28 1   
    21   20   21 1   
    22   20   23 1   
    23   20   29 1   
    24   21   22 2   
    25   21   41 1   
    26   23   24 1   
    27   23   30 1   
    28   23   31 1   
    29   24   25 1   
    30   24   32 1   
    31   24   33 1   
    32   25   26 1   
    33   25   34 1   
    34   25   35 1   
    35   26   27 1   
    36   26   36 1   
    37   26   37 1   
    38   27   38 1   
    39   27   39 1   
    40   27   40 1   
    41   41   42 1   
    42   41   49 1   
    43   42   43 1   
    44   42   45 1   
    45   42   50 1   
    46   43   44 2   
    47   43   53 1   
    48   45   46 1   
    49   45   51 1   
    50   45   52 1   
    51   46   47 1   
    52   46   48 1   
    53   53   54 1   
    54   53   57 1   
    55   54   55 1   
    56   54   58 1   
    57   54   59 1   
    58   55   56 2   
    59   55   60 1   
    60   60   61 1   
    61   60   68 1   
    62   61   62 1   
    63   61   64 1   
    64   61   69 1   
    65   62   63 2   
    66   62   74 1   
    67   64   65 1   
    68   64   70 1   
    69   64   71 1   
    70   65   66 1   
    71   65   67 2   
    72   66   72 1   
    73   66   73 1   
    74   74   75 1   
    75   74   78 1   
    76   75   76 1   
    77   75   79 1   
    78   75   80 1   
    79   76   77 2   
    80   76   81 1   
    81   81   82 1   
    82   81   93 1   
    83   82   83 1   
    84   82   85 1   
    85   82   94 1   
    86   83   84 2   
    87   83  102 1   
    88   85   86 1   
    89   85   95 1   
    90   85   96 1   
    91   86   87 ar  
    92   86   88 ar  
    93   87   89 ar  
    94   87   97 1   
    95   88   90 ar  
    96   88   98 1   
    97   89   91 ar  
    98   89   99 1   
    99   90   91 ar  
   100   90  100 1   
   101   91   92 1   
   102   92  101 1   
   103  102  103 1   
   104  102  110 1   
   105  103  104 1   
   106  103  106 1   
   107  103  111 1   
   108  104  105 2   
   109  104  121 1   
   110  106  107 1   
   111  106  108 1   
   112  106  112 1   
   113  107  109 1   
   114  107  113 1   
   115  107  114 1   
   116  108  115 1   
   117  108  116 1   
   118  108  117 1   
   119  109  118 1   
   120  109  119 1   
   121  109  120 1   
   122  121  122 1   
   123  121  127 1   
   124  122  123 1   
   125  122  125 1   
   126  122  128 1   
   127  123  124 2   
   128  123  132 1   
   129  125  126 1   
   130  125  129 1   
   131  125  130 1   
   132  126  131 1   
   133  132  133 1   
   134  132  137 1   
   135  133  134 1   
   136  133  136 1   
   137  133  138 1   
   138  134  135 2   
   139  134  142 1   
   140  136  139 1   
   141  136  140 1   
   142  136  141 1   
   143  142  143 1   
   144  142  147 1   
   145  143  144 1   
   146  143  146 1   
   147  143  148 1   
   148  144  145 2   
   149  144  152 1   
   150  146  149 1   
   151  146  150 1   
   152  146  151 1   
   153  152  153 1   
   154  152  161 1   
   155  153  154 1   
   156  153  156 1   
   157  153  162 1   
   158  154  155 2   
   159  154  167 1   
   160  156  157 1   
   161  156  163 1   
   162  156  164 1   
   163  157  158 1   
   164  157  165 1   
   165  157  166 1   
   166  158  159 1   
   167  158  160 1   
   168  167  168 1   
   169  167  172 1   
   170  168  169 1   
   171  168  170 1   
   172  168  171 1   
   173  174  175 1   
   174  174  176 1   
   175  177  178 1   
   176  177  179 1   
   177  180  181 1   
   178  180  182 1   
   179  183  184 1   
   180  183  185 1   
   181  186  187 1   
   182  186  188 1   
@<TRIPOS>SUBSTRUCTURE
     1 MOL         1 TEMP              0 ****  ****    0 ROOT
