@<TRIPOS>MOLECULE
MOL
  181   177     1     0     0
SMALL
resp


@<TRIPOS>ATOM
      1 C1          9.4860    7.7330   -1.6370 c3        1 MOL     -0.324456
      2 C2          8.5790    6.7260   -0.8360 c         1 MOL      0.694630
      3 O1          7.6340    7.2340   -0.1740 o         1 MOL     -0.573171
      4 H1         10.0620    7.1870   -2.3830 hc        1 MOL      0.086010
      5 H2          8.8580    8.4730   -2.1330 hc        1 MOL      0.086010
      6 H3         10.1670    8.2340   -0.9490 hc        1 MOL      0.086010
      7 N1          8.7420    5.3830   -0.8640 n         1 MOL     -0.797897
      8 C3          9.8240    4.5990   -1.5310 c3        1 MOL      0.494993
      9 C4         10.6500    3.7360   -0.6050 c         1 MOL      0.246620
     10 O2         11.7400    3.2540   -0.8850 o         1 MOL     -0.524491
     11 C5          9.1330    3.7490   -2.5590 c3        1 MOL     -0.396471
     12 C6          8.1400    2.7170   -2.0680 c         1 MOL      0.845469
     13 O3          7.5210    2.0470   -2.9230 o         1 MOL     -0.750587
     14 O4          7.8960    2.5200   -0.8950 o         1 MOL     -0.750587
     15 H4          7.9460    4.8490   -0.5760 hn        1 MOL      0.401305
     16 H5         10.4650    5.2800   -2.0920 h1        1 MOL     -0.012392
     17 H6          9.9370    3.1670   -3.0080 hc        1 MOL      0.085253
     18 H7          8.7450    4.4070   -3.3450 hc        1 MOL      0.085253
     19 N2         10.1220    3.4400    0.5820 n         1 MOL     -0.212611
     20 C7         10.9040    2.9650    1.7290 c3        1 MOL      0.270529
     21 C8         10.5920    1.5650    2.2580 c         1 MOL      0.297903
     22 O5         11.2710    1.0760    3.1870 o         1 MOL     -0.533088
     23 C9         10.8190    3.9730    2.8170 c3        1 MOL     -0.310708
     24 H8          9.3450    3.9790    0.9490 hn        1 MOL      0.237908
     25 H9         11.9200    2.9700    1.3330 h1        1 MOL      0.046244
     26 H10        11.4190    3.5990    3.6440 hc        1 MOL      0.078350
     27 H11        11.3750    4.8670    2.5190 hc        1 MOL      0.078350
     28 H12         9.7750    4.2440    2.9570 hc        1 MOL      0.078350
     29 N3          9.6540    0.9010    1.5710 n         1 MOL     -0.052570
     30 C10         9.0770   -0.4520    1.8570 c3        1 MOL     -0.324516
     31 C11         8.7020   -1.2100    0.5950 c         1 MOL      0.546329
     32 O6          8.4800   -0.6400   -0.4650 o         1 MOL     -0.530956
     33 C12         7.8530   -0.2810    2.7960 c3        1 MOL      0.012986
     34 C13         6.7520    0.6440    2.2850 c         1 MOL      0.644912
     35 O7          6.5100    1.7440    2.8970 o         1 MOL     -0.675423
     36 O8          6.0370    0.2470    1.2660 o         1 MOL     -0.675423
     37 H13         9.1550    1.4650    0.9050 hn        1 MOL      0.119415
     38 H14         9.8150   -1.0700    2.3740 h1        1 MOL      0.140267
     39 H15         8.1490    0.0220    3.8040 hc        1 MOL      0.026440
     40 H16         7.3720   -1.2140    3.1220 hc        1 MOL      0.026440
     41 N4          8.4760   -2.5390    0.6630 n         1 MOL     -0.314315
     42 C14         8.2820   -3.4640   -0.4700 c3        1 MOL     -0.342353
     43 C15         6.7840   -3.4010   -0.8850 c         1 MOL      0.585233
     44 O9          6.0740   -2.3550   -0.8650 o         1 MOL     -0.574981
     45 H17         8.8580   -2.9370    1.5090 hn        1 MOL      0.271914
     46 H18         8.4450   -4.5040   -0.2010 h1        1 MOL      0.171383
     47 H19         8.8970   -3.0800   -1.2860 h1        1 MOL      0.171383
     48 N5          6.2890   -4.5350   -1.4510 n         1 MOL     -0.424484
     49 C16         4.8630   -4.7370   -1.7770 c3        1 MOL      0.212699
     50 C17         4.0300   -4.7430   -0.5440 c         1 MOL      0.713091
     51 O10         4.4150   -5.3090    0.5020 o         1 MOL     -0.569818
     52 C18         4.6300   -5.9340   -2.7010 c3        1 MOL     -0.410087
     53 C19         5.4300   -5.8310   -3.9710 c         1 MOL      0.776308
     54 N6          6.6140   -6.3700   -3.8890 n         1 MOL     -0.859398
     55 O11         5.1210   -5.1350   -4.9500 o         1 MOL     -0.572073
     56 H20         6.9140   -5.3210   -1.4630 hn        1 MOL      0.216120
     57 H21         4.4990   -3.8370   -2.2800 h1        1 MOL      0.006882
     58 H22         3.5930   -6.0210   -3.0250 hc        1 MOL      0.097996
     59 H23         4.9440   -6.8360   -2.1780 hc        1 MOL      0.097996
     60 H24         6.8060   -6.8210   -3.0040 hn        1 MOL      0.388797
     61 H25         7.2320   -6.4900   -4.6820 hn        1 MOL      0.388797
     62 N7          2.7540   -4.3540   -0.7270 n         1 MOL     -0.581253
     63 C20         1.7410   -4.3030    0.3400 c3        1 MOL     -0.086769
     64 C21         1.7900   -3.0970    1.2180 c         1 MOL      0.755885
     65 O12         2.4910   -2.1230    0.9050 o         1 MOL     -0.629325
     66 H26         2.4500   -3.8760   -1.5660 hn        1 MOL      0.333480
     67 H27         1.7970   -5.2030    0.9430 h1        1 MOL      0.137081
     68 H28         0.7880   -4.3150   -0.1820 h1        1 MOL      0.137081
     69 N8          0.8710   -2.8910    2.1150 n         1 MOL     -0.615684
     70 C22        -0.1680   -3.7450    2.6360 c3        1 MOL     -0.023776
     71 C23        -1.5930   -3.1830    2.3380 c         1 MOL      0.504644
     72 O13        -2.5190   -3.9560    2.2030 o         1 MOL     -0.544986
     73 C24        -0.0440   -3.9920    4.1070 c3        1 MOL      0.395445
     74 C25         1.0460   -4.8760    4.4130 c3        1 MOL     -0.538655
     75 O14         0.1270   -2.7910    4.8360 oh        1 MOL     -0.596654
     76 H29         1.0170   -2.0640    2.6640 hn        1 MOL      0.372992
     77 H30        -0.0640   -4.7190    2.1550 h1        1 MOL      0.051575
     78 H31        -0.9450   -4.5440    4.3470 h1        1 MOL      0.010711
     79 H32         0.1890   -2.9750    5.7750 ho        1 MOL      0.403446
     80 H33         2.0380   -4.4330    4.3070 hc        1 MOL      0.129422
     81 H34         0.8940   -5.1210    5.4670 hc        1 MOL      0.129422
     82 H35         0.9980   -5.8630    3.9470 hc        1 MOL      0.129422
     83 N9         -1.7390   -1.8380    2.2920 n         1 MOL     -0.347526
     84 C26        -2.9130   -1.0220    2.1450 c3        1 MOL      0.212062
     85 C27        -2.8250   -0.3920    0.7330 c         1 MOL      0.377915
     86 O15        -1.9140    0.3140    0.4180 o         1 MOL     -0.548030
     87 C28        -3.1210   -0.0990    3.3530 c3        1 MOL     -0.009249
     88 C29        -3.0860   -0.7130    4.7080 c3        1 MOL      0.088917
     89 C30        -4.3760    0.7430    3.1210 c3        1 MOL     -0.046392
     90 C31        -4.1340   -1.8700    4.9420 c3        1 MOL     -0.404387
     91 H36        -0.9200   -1.2490    2.3710 hn        1 MOL      0.234203
     92 H37        -3.7420   -1.7260    2.2100 h1        1 MOL      0.074735
     93 H38        -2.2270    0.5340    3.3450 hc        1 MOL     -0.029608
     94 H39        -3.1880    0.0570    5.4800 hc        1 MOL     -0.006289
     95 H40        -2.1080   -1.1780    4.8700 hc        1 MOL     -0.006289
     96 H41        -4.5510    1.4440    3.9410 hc        1 MOL      0.033404
     97 H42        -4.1870    1.3410    2.2290 hc        1 MOL      0.033404
     98 H43        -5.2180    0.0560    3.0910 hc        1 MOL      0.033404
     99 H44        -3.9390   -2.7330    4.3080 hc        1 MOL      0.095352
    100 H45        -4.1910   -2.0110    6.0220 hc        1 MOL      0.095352
    101 H46        -5.1370   -1.5550    4.6560 hc        1 MOL      0.095352
    102 N10        -3.8810   -0.5210   -0.0560 n         1 MOL     -0.277491
    103 C32        -5.1600   -1.2270    0.2870 c3        1 MOL     -0.012935
    104 C33        -6.4620   -0.6530   -0.4120 c         1 MOL      0.399953
    105 O16        -6.3400   -0.0690   -1.5150 o         1 MOL     -0.470037
    106 C34        -5.0810   -2.6910   -0.1400 c3        1 MOL     -0.300824
    107 C35        -4.8510   -2.8640   -1.6730 c         1 MOL      0.801480
    108 O17        -5.7920   -3.3560   -2.3460 o         1 MOL     -0.734538
    109 O18        -3.7430   -2.6890   -2.1910 o         1 MOL     -0.734538
    110 H47        -3.9570    0.0730   -0.8650 hn        1 MOL      0.283647
    111 H48        -5.3480   -1.1740    1.3710 h1        1 MOL      0.088483
    112 H49        -5.9640   -3.2440    0.1820 hc        1 MOL      0.052166
    113 H50        -4.2980   -3.1610    0.4520 hc        1 MOL      0.052166
    114 N11        -7.6380   -0.7850    0.2270 n         1 MOL     -0.531327
    115 C36        -8.9310   -0.5690   -0.4660 c3        1 MOL      0.582777
    116 C37       -10.1670    0.0060    0.4130 c         1 MOL      0.010107
    117 O19       -10.4320   -0.4800    1.4580 o         1 MOL     -0.460698
    118 C38        -9.2410   -1.8790   -1.2240 c3        1 MOL     -0.171304
    119 C39       -10.4660   -1.7410   -2.0490 ca        1 MOL      0.175635
    120 C40       -11.7270   -2.0710   -1.5330 ca        1 MOL     -0.220022
    121 C41       -10.3850   -1.2610   -3.3740 ca        1 MOL     -0.220022
    122 C42       -12.9110   -1.6390   -2.2920 ca        1 MOL     -0.079136
    123 C43       -11.4660   -0.9880   -4.1970 ca        1 MOL     -0.079136
    124 C44       -12.7620   -1.0870   -3.5890 ca        1 MOL     -0.214353
    125 H51        -7.6460   -1.2140    1.1400 hn        1 MOL      0.316746
    126 H52        -8.8120    0.1650   -1.2610 h1        1 MOL     -0.055073
    127 H53        -9.4170   -2.6400   -0.4670 hc        1 MOL      0.037329
    128 H54        -8.3370   -2.1510   -1.7710 hc        1 MOL      0.037329
    129 H55       -11.8290   -2.5030   -0.5450 ha        1 MOL      0.144595
    130 H56        -9.3500   -1.1580   -3.6720 ha        1 MOL      0.144595
    131 H57       -13.8950   -1.6340   -1.8520 ha        1 MOL      0.106513
    132 H58       -11.3100   -0.5330   -5.1600 ha        1 MOL      0.106513
    133 H59       -13.6130   -0.6550   -4.0970 ha        1 MOL      0.113141
    134 N12       -10.9580    0.9800   -0.0540 n         1 MOL      0.238626
    135 C45       -10.8720    1.7110   -1.3180 c3        1 MOL     -0.006034
    136 C46        -9.6240    2.6400   -1.3740 c         1 MOL      0.427212
    137 O20        -9.0070    2.7850   -2.4250 o         1 MOL     -0.563652
    138 C47       -12.1920    2.3100   -1.5920 c3        1 MOL      0.094369
    139 C48       -12.9090    2.4350   -0.2020 c3        1 MOL     -0.251452
    140 C49       -12.1790    1.2880    0.6120 c3        1 MOL      0.137183
    141 H60       -10.6310    0.9240   -2.0290 h1        1 MOL      0.038912
    142 H61       -12.0700    3.2770   -2.0740 hc        1 MOL     -0.015476
    143 H62       -12.7100    1.6050   -2.2420 hc        1 MOL     -0.015476
    144 H63       -12.6440    3.3880    0.2440 hc        1 MOL      0.066977
    145 H64       -13.9470    2.1640   -0.4110 hc        1 MOL      0.066977
    146 H65       -12.0980    1.6150    1.6510 h1        1 MOL     -0.027052
    147 H66       -12.6840    0.3190    0.5790 h1        1 MOL     -0.027052
    148 N13        -9.1620    3.1780   -0.2810 n         1 MOL     -0.328225
    149 C50        -7.8370    3.8260   -0.0590 c3        1 MOL      0.175414
    150 C51        -8.0110    5.2330   -0.5290 c         1 MOL      0.323797
    151 O21        -8.6300    6.0320    0.2390 o         1 MOL     -0.565713
    152 C52        -7.4620    3.8600    1.4310 c3        1 MOL      0.036275
    153 C53        -7.4300    2.4990    2.0380 c3        1 MOL     -0.119398
    154 C54        -7.1250    2.4730    3.6190 c         1 MOL      0.721471
    155 O22        -7.5560    1.5060    4.3000 o         1 MOL     -0.717531
    156 O23        -6.5060    3.4240    4.1640 o         1 MOL     -0.717531
    157 H67        -9.7080    3.0050    0.5500 hn        1 MOL      0.239537
    158 H68        -7.0500    3.2710   -0.5680 h1        1 MOL      0.070211
    159 H69        -8.2390    4.4180    1.9600 hc        1 MOL      0.008498
    160 H70        -6.5390    4.3740    1.6990 hc        1 MOL      0.008498
    161 H71        -6.7570    1.8590    1.4550 hc        1 MOL     -0.052134
    162 H72        -8.4240    2.0800    1.8970 hc        1 MOL     -0.052134
    163 N14        -7.7180    5.6950   -1.7780 n         1 MOL     -0.228810
    164 C55        -6.8340    5.0930   -2.7540 c3        1 MOL     -0.169886
    165 H73        -7.3200    4.2240   -3.1970 h1        1 MOL      0.079985
    166 H74        -6.6060    5.8180   -3.5350 h1        1 MOL      0.079985
    167 H75        -5.9100    4.7830   -2.2640 h1        1 MOL      0.079985
    168 H76        -7.9610    6.6690   -1.9050 hn        1 MOL      0.238313
    169 Ca1         6.2540    0.4130   -1.3740 Ca        1 MOL      1.712122
    170 O24         3.8240   -0.6570   -0.9890 oh        1 MOL     -0.835197
    171 H77         3.3300   -1.4430   -0.7610 ho        1 MOL      0.413838
    172 H78         3.1790    0.0390   -0.9860 ho        1 MOL      0.413838
    173 O25         7.4600   -0.9020   -3.4440 oh        1 MOL     -0.835197
    174 H79         7.6520   -0.3150   -4.1710 ho        1 MOL      0.413838
    175 H80         7.2660   -1.7360   -3.8490 ho        1 MOL      0.413838
    176 O26         4.7840    2.6710   -1.6610 oh        1 MOL     -0.835197
    177 H81         4.2410    2.9700   -2.3970 ho        1 MOL      0.413838
    178 H82         4.7270    3.3810   -1.0240 ho        1 MOL      0.413838
    179 O27         4.8530    0.6420   -3.8710 oh        1 MOL     -0.835197
    180 H83         4.3990   -0.1910   -3.9960 ho        1 MOL      0.413838
    181 H84         4.8000    1.0720   -4.7250 ho        1 MOL      0.413838
@<TRIPOS>BOND
     1    1    2 1   
     2    1    4 1   
     3    1    5 1   
     4    1    6 1   
     5    2    3 2   
     6    2    7 1   
     7    7    8 1   
     8    7   15 1   
     9    8    9 1   
    10    8   11 1   
    11    8   16 1   
    12    9   10 2   
    13    9   19 1   
    14   11   12 1   
    15   11   17 1   
    16   11   18 1   
    17   12   13 1   
    18   12   14 1   
    19   19   20 1   
    20   19   24 1   
    21   20   21 1   
    22   20   23 1   
    23   20   25 1   
    24   21   22 2   
    25   21   29 1   
    26   23   26 1   
    27   23   27 1   
    28   23   28 1   
    29   29   30 1   
    30   29   37 1   
    31   30   31 1   
    32   30   33 1   
    33   30   38 1   
    34   31   32 2   
    35   31   41 1   
    36   33   34 1   
    37   33   39 1   
    38   33   40 1   
    39   34   35 1   
    40   34   36 1   
    41   41   42 1   
    42   41   45 1   
    43   42   43 1   
    44   42   46 1   
    45   42   47 1   
    46   43   44 2   
    47   43   48 1   
    48   48   49 1   
    49   48   56 1   
    50   49   50 1   
    51   49   52 1   
    52   49   57 1   
    53   50   51 2   
    54   50   62 1   
    55   52   53 1   
    56   52   58 1   
    57   52   59 1   
    58   53   54 1   
    59   53   55 2   
    60   54   60 1   
    61   54   61 1   
    62   62   63 1   
    63   62   66 1   
    64   63   64 1   
    65   63   67 1   
    66   63   68 1   
    67   64   65 2   
    68   64   69 1   
    69   69   70 1   
    70   69   76 1   
    71   70   71 1   
    72   70   73 1   
    73   70   77 1   
    74   71   72 2   
    75   71   83 1   
    76   73   74 1   
    77   73   75 1   
    78   73   78 1   
    79   74   80 1   
    80   74   81 1   
    81   74   82 1   
    82   75   79 1   
    83   83   84 1   
    84   83   91 1   
    85   84   85 1   
    86   84   87 1   
    87   84   92 1   
    88   85   86 2   
    89   85  102 1   
    90   87   88 1   
    91   87   89 1   
    92   87   93 1   
    93   88   90 1   
    94   88   94 1   
    95   88   95 1   
    96   89   96 1   
    97   89   97 1   
    98   89   98 1   
    99   90   99 1   
   100   90  100 1   
   101   90  101 1   
   102  102  103 1   
   103  102  110 1   
   104  103  104 1   
   105  103  106 1   
   106  103  111 1   
   107  104  105 2   
   108  104  114 1   
   109  106  107 1   
   110  106  112 1   
   111  106  113 1   
   112  107  108 1   
   113  107  109 1   
   114  114  115 1   
   115  114  125 1   
   116  115  116 1   
   117  115  118 1   
   118  115  126 1   
   119  116  117 2   
   120  116  134 1   
   121  118  119 1   
   122  118  127 1   
   123  118  128 1   
   124  119  120 ar  
   125  119  121 ar  
   126  120  122 ar  
   127  120  129 1   
   128  121  123 ar  
   129  121  130 1   
   130  122  124 ar  
   131  122  131 1   
   132  123  124 ar  
   133  123  132 1   
   134  124  133 1   
   135  134  135 1   
   136  134  140 1   
   137  135  136 1   
   138  135  138 1   
   139  135  141 1   
   140  136  137 2   
   141  136  148 1   
   142  138  139 1   
   143  138  142 1   
   144  138  143 1   
   145  139  140 1   
   146  139  144 1   
   147  139  145 1   
   148  140  146 1   
   149  140  147 1   
   150  148  149 1   
   151  148  157 1   
   152  149  150 1   
   153  149  152 1   
   154  149  158 1   
   155  150  151 2   
   156  150  163 1   
   157  152  153 1   
   158  152  159 1   
   159  152  160 1   
   160  153  154 1   
   161  153  161 1   
   162  153  162 1   
   163  154  155 1   
   164  154  156 1   
   165  163  164 1   
   166  163  168 1   
   167  164  165 1   
   168  164  166 1   
   169  164  167 1   
   170  170  171 1   
   171  170  172 1   
   172  173  174 1   
   173  173  175 1   
   174  176  177 1   
   175  176  178 1   
   176  179  180 1   
   177  179  181 1   
@<TRIPOS>SUBSTRUCTURE
     1 MOL         1 TEMP              0 ****  ****    0 ROOT
