@<TRIPOS>MOLECULE
MOL
  185   180     1     0     0
SMALL
resp


@<TRIPOS>ATOM
      1 C1         -6.5020   -0.3610   -5.3720 c3        1 MOL     -0.409982
      2 C2         -6.4260    0.1960   -3.9040 c         1 MOL      0.730196
      3 O1         -5.4730    0.0200   -3.1610 o         1 MOL     -0.558429
      4 H1         -7.5160   -0.2370   -5.7550 hc        1 MOL      0.109527
      5 H2         -5.8060    0.1880   -6.0060 hc        1 MOL      0.109527
      6 H3         -6.2400   -1.4190   -5.3740 hc        1 MOL      0.109527
      7 N1         -7.4540    0.9850   -3.4590 n         1 MOL     -0.599863
      8 C3         -7.6190    1.5530   -2.0680 c3        1 MOL     -0.018928
      9 C4         -7.3690    0.5680   -0.9060 c         1 MOL      0.340603
     10 O2         -7.0940    1.0790    0.2080 o         1 MOL     -0.457921
     11 C5         -6.8770    2.8470   -1.8450 c3        1 MOL     -0.272261
     12 C6         -6.9110    3.9570   -2.9220 c         1 MOL      0.833791
     13 O3         -7.8270    4.7330   -2.9260 o         1 MOL     -0.689829
     14 O4         -5.9020    4.1510   -3.6240 o         1 MOL     -0.689829
     15 H4         -8.1850    1.1960   -4.1210 hn        1 MOL      0.332704
     16 H5         -8.6770    1.7700   -1.9460 h1        1 MOL      0.110510
     17 H6         -5.8400    2.5530   -1.6640 hc        1 MOL      0.113310
     18 H7         -6.9920    3.2850   -0.8510 hc        1 MOL      0.113310
     19 N2         -7.7400   -0.7370   -1.0430 n         1 MOL     -0.261561
     20 C7         -7.8010   -1.7790    0.0210 c3        1 MOL      0.159854
     21 C8         -6.3930   -2.3750    0.2750 c         1 MOL      0.496626
     22 O5         -6.1650   -3.5320    0.0550 o         1 MOL     -0.579692
     23 C9         -8.8650   -2.7000   -0.4000 c3        1 MOL     -0.172538
     24 C10        -9.3030   -3.7290    0.6550 c3        1 MOL      0.096510
     25 C11       -10.2970   -4.7650    0.2410 c3        1 MOL      0.017474
     26 C12       -10.8630   -5.3610    1.5250 c3        1 MOL     -0.103032
     27 N3         -9.8180   -6.2180    2.2370 n4        1 MOL     -0.252413
     28 H8         -7.9900   -0.9300   -2.0060 hn        1 MOL      0.193555
     29 H9         -8.1160   -1.3770    0.9870 h1        1 MOL      0.020177
     30 H10        -8.5180   -3.1780   -1.3200 hc        1 MOL      0.041852
     31 H11        -9.6800   -2.0450   -0.7210 hc        1 MOL      0.041852
     32 H12        -9.6890   -3.1180    1.4720 hc        1 MOL      0.011000
     33 H13        -8.3740   -4.1870    1.0110 hc        1 MOL      0.011000
     34 H14        -9.8320   -5.5370   -0.3680 hc        1 MOL      0.034908
     35 H15       -11.0870   -4.3410   -0.3700 hc        1 MOL      0.034908
     36 H16       -11.7560   -5.9030    1.2050 hx        1 MOL      0.110469
     37 H17       -11.2840   -4.5300    2.0950 hx        1 MOL      0.110469
     38 H18       -10.0000   -6.6430    3.1440 hn        1 MOL      0.242268
     39 H19        -9.7050   -7.0690    1.7130 hn        1 MOL      0.242268
     40 H20        -8.9500   -5.7110    2.2690 hn        1 MOL      0.242268
     41 N4         -5.5930   -1.5150    0.8070 n         1 MOL     -0.311799
     42 C13        -4.1410   -1.6020    0.7290 c3        1 MOL      0.050877
     43 C14        -3.6310   -1.7940    2.1730 c         1 MOL      0.227250
     44 O6         -3.9930   -1.0820    3.1580 o         1 MOL     -0.456689
     45 C15        -3.6410   -0.2610    0.1210 c3        1 MOL     -0.058067
     46 C16        -2.1030   -0.2650   -0.0050 c         1 MOL      0.684017
     47 O7         -1.3550   -0.2640    0.9760 o         1 MOL     -0.675821
     48 O8         -1.7170   -0.3160   -1.2260 o         1 MOL     -0.675821
     49 H21        -5.9410   -0.6000    1.0610 hn        1 MOL      0.195979
     50 H22        -3.8330   -2.4500    0.1120 h1        1 MOL      0.089137
     51 H23        -3.8910    0.5370    0.8280 hc        1 MOL      0.099371
     52 H24        -4.0780   -0.1310   -0.8660 hc        1 MOL      0.099371
     53 N5         -2.9080   -2.8690    2.4130 n         1 MOL     -0.101412
     54 C17        -2.5020   -3.2660    3.7410 c3        1 MOL     -0.164071
     55 C18        -1.4550   -2.4100    4.5180 c         1 MOL      0.515950
     56 O9         -1.0480   -2.7260    5.6650 o         1 MOL     -0.542004
     57 H25        -2.6900   -3.5100    1.6630 hn        1 MOL      0.208788
     58 H26        -2.1360   -4.2970    3.7060 h1        1 MOL      0.093585
     59 H27        -3.3920   -3.2810    4.3700 h1        1 MOL      0.093585
     60 N6         -0.9200   -1.2760    3.8770 n         1 MOL     -0.091416
     61 C19        -0.0360   -0.2940    4.5380 c3        1 MOL     -0.347569
     62 C20        -0.4700    1.1620    4.2230 c         1 MOL      0.583684
     63 O10         0.1110    2.1550    4.6710 o         1 MOL     -0.528617
     64 C21         1.4410   -0.5880    4.3070 c3        1 MOL     -0.111056
     65 C22         2.0460   -0.4610    2.9190 c         1 MOL      0.516012
     66 N7          3.3550   -0.5770    2.7680 n         1 MOL     -0.661576
     67 O11         1.3730   -0.3040    1.9430 o         1 MOL     -0.381468
     68 H28        -1.2680   -0.9670    2.9880 hn        1 MOL      0.042689
     69 H29        -0.1660   -0.4030    5.6160 h1        1 MOL      0.185295
     70 H30         1.8510   -1.5270    4.7070 hc        1 MOL      0.078011
     71 H31         1.9640    0.2090    4.8420 hc        1 MOL      0.078011
     72 H32         3.9140   -0.5760    3.6030 hn        1 MOL      0.291432
     73 H33         3.7620   -0.8050    1.8760 hn        1 MOL      0.291432
     74 N8         -1.4870    1.2900    3.3450 n         1 MOL     -0.212246
     75 C23        -1.9650    2.6590    3.0450 c3        1 MOL     -0.261121
     76 C24        -1.0250    3.3610    2.0400 c         1 MOL      0.663299
     77 O12        -0.7810    4.5560    2.1860 o         1 MOL     -0.575287
     78 H34        -1.8250    0.5590    2.7300 hn        1 MOL      0.150489
     79 H35        -2.0820    3.2200    3.9660 h1        1 MOL      0.141268
     80 H36        -2.9160    2.5570    2.5230 h1        1 MOL      0.141268
     81 N9         -0.6120    2.6700    0.9900 n         1 MOL     -0.358738
     82 C25        -0.0010    3.2300   -0.2370 c3        1 MOL      0.001544
     83 C26         1.1830    2.3660   -0.6850 c         1 MOL      0.629384
     84 O13         1.0370    1.2050   -0.7020 o         1 MOL     -0.497653
     85 C27        -1.0930    3.3580   -1.3820 c3        1 MOL     -0.125648
     86 C28        -2.2720    4.2580   -0.8810 ca        1 MOL      0.030581
     87 C29        -3.3920    3.7230   -0.1970 ca        1 MOL     -0.085941
     88 C30        -2.2090    5.6330   -1.1530 ca        1 MOL     -0.085941
     89 C31        -4.4970    4.5940    0.1210 ca        1 MOL     -0.303310
     90 C32        -3.2370    6.5030   -0.7520 ca        1 MOL     -0.303310
     91 C33        -4.4340    5.9600   -0.1660 ca        1 MOL      0.446321
     92 O14        -5.4780    6.8230    0.1350 oh        1 MOL     -0.550974
     93 H37        -0.9130    1.7120    0.8960 hn        1 MOL      0.057021
     94 H38         0.4210    4.2170   -0.0300 h1        1 MOL      0.073491
     95 H39        -1.5320    2.3920   -1.6650 hc        1 MOL      0.084572
     96 H40        -0.6870    3.8130   -2.2790 hc        1 MOL      0.084572
     97 H41        -3.4960    2.6580   -0.0300 ha        1 MOL      0.092648
     98 H42        -1.2660    6.0570   -1.4660 ha        1 MOL      0.092648
     99 H43        -5.4270    4.2260    0.5210 ha        1 MOL      0.138069
    100 H44        -3.0410    7.5580   -0.8110 ha        1 MOL      0.138069
    101 H45        -5.3810    7.7290   -0.1630 ho        1 MOL      0.399307
    102 N10         2.3260    3.0020   -1.0640 n         1 MOL     -0.666089
    103 C34         3.5300    2.2190   -1.3660 c3        1 MOL     -0.006561
    104 C35         4.4670    1.9740   -0.2000 c         1 MOL      0.473348
    105 O15         5.0870    0.9180   -0.1240 o         1 MOL     -0.363777
    106 C36         4.2600    3.0650   -2.3900 c3        1 MOL      0.105744
    107 C37         3.4130    3.4350   -3.6650 c3        1 MOL      0.235694
    108 C38         5.6850    2.5830   -2.7800 c3        1 MOL     -0.330366
    109 C39         2.9630    2.2200   -4.3840 c3        1 MOL     -0.435470
    110 H46         2.3380    3.9660   -1.3640 hn        1 MOL      0.330753
    111 H47         3.2900    1.2560   -1.8210 h1        1 MOL      0.055333
    112 H48         4.4420    4.0200   -1.8900 hc        1 MOL     -0.037859
    113 H49         3.9890    4.1570   -4.2570 hc        1 MOL     -0.027650
    114 H50         2.5250    4.0130   -3.4250 hc        1 MOL     -0.027650
    115 H51         6.1530    3.1730   -3.5610 hc        1 MOL      0.088977
    116 H52         6.2880    2.7240   -1.8900 hc        1 MOL      0.088977
    117 H53         5.7120    1.5290   -3.0690 hc        1 MOL      0.088977
    118 H54         2.1510    1.7510   -3.8280 hc        1 MOL      0.121502
    119 H55         2.5520    2.4590   -5.3720 hc        1 MOL      0.121502
    120 H56         3.6890    1.4160   -4.3670 hc        1 MOL      0.121502
    121 N11         4.5580    2.9020    0.7160 n         1 MOL     -0.258190
    122 C40         5.0850    2.6270    2.0600 c3        1 MOL     -0.105769
    123 C41         6.5360    2.1020    2.1300 c         1 MOL      0.579999
    124 O16         7.0650    1.5360    3.0930 o         1 MOL     -0.534734
    125 C42         4.9400    3.8280    3.0390 c3        1 MOL      0.185865
    126 O17         5.8520    4.9340    2.8930 oh        1 MOL     -0.636920
    127 H57         4.1130    3.8020    0.5730 hn        1 MOL      0.303967
    128 H58         4.5000    1.8640    2.5630 h1        1 MOL      0.086309
    129 H59         5.1190    3.3260    3.9900 h1        1 MOL      0.042729
    130 H60         3.9270    4.2220    3.0270 h1        1 MOL      0.042729
    131 H61         6.0710    5.3010    3.7520 ho        1 MOL      0.422690
    132 N12         7.3200    2.2450    1.0750 n         1 MOL     -0.482181
    133 C43         8.6050    1.6650    0.6620 c3        1 MOL      0.492735
    134 C44         8.5340    0.1440    0.6130 c         1 MOL      0.301907
    135 O18         9.5970   -0.4860    0.8820 o         1 MOL     -0.523946
    136 C45         9.7920    2.3200    1.3850 c3        1 MOL     -0.312416
    137 H62         6.9270    2.8390    0.3550 hn        1 MOL      0.205969
    138 H63         8.7040    1.9930   -0.3750 h1        1 MOL     -0.014923
    139 H64         9.8680    1.8370    2.3550 hc        1 MOL      0.083122
    140 H65        10.6590    2.2460    0.7330 hc        1 MOL      0.083122
    141 H66         9.6150    3.3960    1.4830 hc        1 MOL      0.083122
    142 N13         7.4310   -0.5820    0.2660 n         1 MOL     -0.263374
    143 C46         7.3870   -2.0150    0.3000 c3        1 MOL      0.340870
    144 C47         6.6470   -2.5730   -0.8800 c         1 MOL      0.416050
    145 O19         5.7780   -1.8820   -1.4680 o         1 MOL     -0.483039
    146 C48         7.0050   -2.5000    1.6510 c3        1 MOL     -0.490969
    147 H67         6.5850   -0.1330   -0.0550 hn        1 MOL      0.008219
    148 H68         8.3980   -2.3560    0.0490 h1        1 MOL     -0.007117
    149 H69         5.9970   -2.0980    1.7590 hc        1 MOL      0.140472
    150 H70         7.0730   -3.5590    1.9020 hc        1 MOL      0.140472
    151 H71         7.6060   -1.9980    2.4140 hc        1 MOL      0.140472
    152 N14         6.7600   -3.9350   -1.1500 n         1 MOL     -0.299126
    153 C49         6.1800   -4.6220   -2.2990 c3        1 MOL     -0.229078
    154 C50         6.7670   -4.1540   -3.6330 c         1 MOL      0.465755
    155 O20         6.2080   -4.3440   -4.7480 o         1 MOL     -0.498387
    156 C51         4.6660   -4.5590   -2.4480 c3        1 MOL      0.299821
    157 C52         3.8450   -4.8920   -1.1920 c3        1 MOL      0.016108
    158 C53         2.3540   -4.5690   -1.3430 c         1 MOL      0.448499
    159 O21         2.1040   -3.3740   -1.1370 o         1 MOL     -0.619343
    160 O22         1.4620   -5.4070   -1.6560 o         1 MOL     -0.619343
    161 H72         7.4560   -4.4100   -0.5950 hn        1 MOL      0.239545
    162 H73         6.3820   -5.6990   -2.2850 h1        1 MOL      0.130105
    163 H74         4.4390   -5.3590   -3.1470 hc        1 MOL     -0.024765
    164 H75         4.3760   -3.6030   -2.8790 hc        1 MOL     -0.024765
    165 H76         4.3350   -4.3590   -0.3840 hc        1 MOL     -0.057781
    166 H77         3.9630   -5.9510   -0.9690 hc        1 MOL     -0.057781
    167 N15         7.9740   -3.4730   -3.6260 n         1 MOL     -0.317132
    168 C54         8.5360   -2.7460   -4.7380 c3        1 MOL     -0.066369
    169 H78         9.6220   -2.7140   -4.6390 h1        1 MOL      0.069759
    170 H79         8.2710   -3.2450   -5.6700 h1        1 MOL      0.069759
    171 H80         8.1430   -1.7300   -4.7450 h1        1 MOL      0.069759
    172 H81         8.4270   -3.3590   -2.7300 hn        1 MOL      0.217677
    173 Ca1         0.6460   -1.3180   -0.4580 Ca        1 MOL      1.739791
    174 O23        -1.0460   -3.4000   -0.9010 oh        1 MOL     -0.928431
    175 H82        -1.4750   -3.8060   -1.6550 ho        1 MOL      0.446404
    176 H83        -0.6640   -4.1280   -0.4170 ho        1 MOL      0.446404
    177 O24         1.0710   -3.4020    1.3990 oh        1 MOL     -0.928431
    178 H84         1.8530   -3.6990    0.9270 ho        1 MOL      0.446404
    179 H85         0.9680   -4.0280    2.1170 ho        1 MOL      0.446404
    180 O25         1.2380   -1.1880   -3.2490 oh        1 MOL     -0.928431
    181 H86         0.7110   -0.9000   -3.9910 ho        1 MOL      0.446404
    182 H87         1.6950   -1.9670   -3.5660 ho        1 MOL      0.446404
    183 O26         3.3180   -1.0800   -0.0180 oh        1 MOL     -0.928431
    184 H88         3.5940   -1.8640   -0.4900 ho        1 MOL      0.446404
    185 H89         4.0280   -0.4520   -0.1700 ho        1 MOL      0.446404
@<TRIPOS>BOND
     1    1    2 1   
     2    1    4 1   
     3    1    5 1   
     4    1    6 1   
     5    2    3 2   
     6    2    7 1   
     7    7    8 1   
     8    7   15 1   
     9    8    9 1   
    10    8   11 1   
    11    8   16 1   
    12    9   10 2   
    13    9   19 1   
    14   11   12 1   
    15   11   17 1   
    16   11   18 1   
    17   12   13 1   
    18   12   14 1   
    19   19   20 1   
    20   19   28 1   
    21   20   21 1   
    22   20   23 1   
    23   20   29 1   
    24   21   22 2   
    25   21   41 1   
    26   23   24 1   
    27   23   30 1   
    28   23   31 1   
    29   24   25 1   
    30   24   32 1   
    31   24   33 1   
    32   25   26 1   
    33   25   34 1   
    34   25   35 1   
    35   26   27 1   
    36   26   36 1   
    37   26   37 1   
    38   27   38 1   
    39   27   39 1   
    40   27   40 1   
    41   41   42 1   
    42   41   49 1   
    43   42   43 1   
    44   42   45 1   
    45   42   50 1   
    46   43   44 2   
    47   43   53 1   
    48   45   46 1   
    49   45   51 1   
    50   45   52 1   
    51   46   47 1   
    52   46   48 1   
    53   53   54 1   
    54   53   57 1   
    55   54   55 1   
    56   54   58 1   
    57   54   59 1   
    58   55   56 2   
    59   55   60 1   
    60   60   61 1   
    61   60   68 1   
    62   61   62 1   
    63   61   64 1   
    64   61   69 1   
    65   62   63 2   
    66   62   74 1   
    67   64   65 1   
    68   64   70 1   
    69   64   71 1   
    70   65   66 1   
    71   65   67 2   
    72   66   72 1   
    73   66   73 1   
    74   74   75 1   
    75   74   78 1   
    76   75   76 1   
    77   75   79 1   
    78   75   80 1   
    79   76   77 2   
    80   76   81 1   
    81   81   82 1   
    82   81   93 1   
    83   82   83 1   
    84   82   85 1   
    85   82   94 1   
    86   83   84 2   
    87   83  102 1   
    88   85   86 1   
    89   85   95 1   
    90   85   96 1   
    91   86   87 ar  
    92   86   88 ar  
    93   87   89 ar  
    94   87   97 1   
    95   88   90 ar  
    96   88   98 1   
    97   89   91 ar  
    98   89   99 1   
    99   90   91 ar  
   100   90  100 1   
   101   91   92 1   
   102   92  101 1   
   103  102  103 1   
   104  102  110 1   
   105  103  104 1   
   106  103  106 1   
   107  103  111 1   
   108  104  105 2   
   109  104  121 1   
   110  106  107 1   
   111  106  108 1   
   112  106  112 1   
   113  107  109 1   
   114  107  113 1   
   115  107  114 1   
   116  108  115 1   
   117  108  116 1   
   118  108  117 1   
   119  109  118 1   
   120  109  119 1   
   121  109  120 1   
   122  121  122 1   
   123  121  127 1   
   124  122  123 1   
   125  122  125 1   
   126  122  128 1   
   127  123  124 2   
   128  123  132 1   
   129  125  126 1   
   130  125  129 1   
   131  125  130 1   
   132  126  131 1   
   133  132  133 1   
   134  132  137 1   
   135  133  134 1   
   136  133  136 1   
   137  133  138 1   
   138  134  135 2   
   139  134  142 1   
   140  136  139 1   
   141  136  140 1   
   142  136  141 1   
   143  142  143 1   
   144  142  147 1   
   145  143  144 1   
   146  143  146 1   
   147  143  148 1   
   148  144  145 2   
   149  144  152 1   
   150  146  149 1   
   151  146  150 1   
   152  146  151 1   
   153  152  153 1   
   154  152  161 1   
   155  153  154 1   
   156  153  156 1   
   157  153  162 1   
   158  154  155 2   
   159  154  167 1   
   160  156  157 1   
   161  156  163 1   
   162  156  164 1   
   163  157  158 1   
   164  157  165 1   
   165  157  166 1   
   166  158  159 1   
   167  158  160 1   
   168  167  168 1   
   169  167  172 1   
   170  168  169 1   
   171  168  170 1   
   172  168  171 1   
   173  174  175 1   
   174  174  176 1   
   175  177  178 1   
   176  177  179 1   
   177  180  181 1   
   178  180  182 1   
   179  183  184 1   
   180  183  185 1   
@<TRIPOS>SUBSTRUCTURE
     1 MOL         1 TEMP              0 ****  ****    0 ROOT
