@<TRIPOS>MOLECULE
MOL
  188   182     1     0     0
SMALL
resp


@<TRIPOS>ATOM
      1 C1         -6.5800    0.5490    3.7820 c3        1 MOL     -0.402955
      2 C2         -7.1990   -0.3230    2.6960 c         1 MOL      0.709702
      3 O1         -6.4880   -0.5220    1.6940 o         1 MOL     -0.562610
      4 H1         -5.6570    0.9930    3.4090 hc        1 MOL      0.096726
      5 H2         -7.2770    1.3410    4.0550 hc        1 MOL      0.096726
      6 H3         -6.3610   -0.0610    4.6580 hc        1 MOL      0.096726
      7 N1         -8.4850   -0.7260    2.7080 n         1 MOL     -0.525084
      8 C3         -9.2200   -1.0830    1.4960 c3        1 MOL      0.092729
      9 C4         -9.1280   -0.2200    0.2380 c         1 MOL      0.544095
     10 O2         -9.5520   -0.6500   -0.8970 o         1 MOL     -0.524183
     11 C5         -9.2570   -2.6010    1.3040 c3        1 MOL     -0.264898
     12 C6         -9.8740   -3.3680    2.4870 c         1 MOL      0.727093
     13 O3         -9.3470   -4.4550    2.8510 o         1 MOL     -0.684408
     14 O4        -10.8570   -2.8480    3.0750 o         1 MOL     -0.684408
     15 H4         -8.8910   -0.7240    3.6270 hn        1 MOL      0.313054
     16 H5        -10.2090   -0.7700    1.8220 h1        1 MOL      0.035580
     17 H6         -8.2240   -2.8760    1.1030 hc        1 MOL      0.078986
     18 H7         -9.8030   -2.9020    0.4000 hc        1 MOL      0.078986
     19 N2         -8.7790    1.0250    0.3870 n         1 MOL     -0.625829
     20 C7         -8.4950    1.8640   -0.8240 c3        1 MOL      0.225503
     21 C8         -7.1160    1.6360   -1.5400 c         1 MOL      0.598392
     22 O5         -7.0100    2.1370   -2.6540 o         1 MOL     -0.593255
     23 C9         -8.6660    3.3370   -0.4270 c3        1 MOL     -0.260741
     24 C10       -10.1540    3.7070   -0.0480 c3        1 MOL      0.442741
     25 C11       -10.2930    5.2160    0.0780 c3        1 MOL     -0.061159
     26 C12       -11.6700    5.7440    0.5780 c3        1 MOL     -0.176117
     27 N3        -11.8300    5.3440    2.0380 n4        1 MOL     -0.170442
     28 H8         -8.5900    1.4110    1.2970 hn        1 MOL      0.320032
     29 H9         -9.1540    1.6560   -1.6670 h1        1 MOL      0.081832
     30 H10        -8.3740    3.8930   -1.3080 hc        1 MOL      0.037852
     31 H11        -8.0600    3.5820    0.4440 hc        1 MOL      0.037852
     32 H12       -10.3750    3.3560    0.9650 hc        1 MOL     -0.099434
     33 H13       -10.9040    3.3010   -0.7250 hc        1 MOL     -0.099434
     34 H14       -10.1430    5.5840   -0.9380 hc        1 MOL      0.027632
     35 H15        -9.5250    5.5590    0.7680 hc        1 MOL      0.027632
     36 H16       -12.5060    5.3830   -0.0310 hx        1 MOL      0.149941
     37 H17       -11.5680    6.8200    0.4150 hx        1 MOL      0.149941
     38 H18       -11.1220    5.6770    2.6750 hn        1 MOL      0.208808
     39 H19       -12.7090    5.7130    2.3650 hn        1 MOL      0.208808
     40 H20       -11.9140    4.3580    2.2230 hn        1 MOL      0.208808
     41 N4         -6.1380    0.9780   -0.9640 n         1 MOL     -0.438865
     42 C13        -4.7590    1.0330   -1.5410 c3        1 MOL      0.042825
     43 C14        -4.6750    0.1380   -2.8150 c         1 MOL      0.664289
     44 O6         -5.2140   -0.9540   -2.8390 o         1 MOL     -0.472376
     45 C15        -3.7950    0.5050   -0.4640 c3        1 MOL     -0.183145
     46 C16        -2.3830    0.6440   -0.8920 c         1 MOL      0.522005
     47 O7         -1.7790    1.6410   -0.4140 o         1 MOL     -0.671984
     48 O8         -1.7560   -0.2020   -1.5610 o         1 MOL     -0.671984
     49 H21        -6.1880    0.6460   -0.0090 hn        1 MOL      0.236105
     50 H22        -4.5520    2.0600   -1.8460 h1        1 MOL      0.043771
     51 H23        -3.9990   -0.5540   -0.3510 hc        1 MOL      0.107161
     52 H24        -3.9600    0.9580    0.5210 hc        1 MOL      0.107161
     53 N5         -4.0800    0.5760   -3.9750 n         1 MOL     -0.414102
     54 C17        -3.9380   -0.2470   -5.1850 c3        1 MOL     -0.063028
     55 C18        -3.0870   -1.5270   -5.0810 c         1 MOL      0.411204
     56 O9         -3.2750   -2.4330   -5.9770 o         1 MOL     -0.528030
     57 H25        -3.5950    1.4580   -3.9650 hn        1 MOL      0.212630
     58 H26        -3.4800    0.3970   -5.9410 h1        1 MOL      0.102988
     59 H27        -4.8990   -0.5360   -5.6040 h1        1 MOL      0.102988
     60 N6         -2.2670   -1.6810   -4.0330 n         1 MOL     -0.053136
     61 C19        -1.5300   -2.9850   -3.7380 c3        1 MOL     -0.070464
     62 C20        -1.7560   -3.7230   -2.3690 c         1 MOL      0.435778
     63 O10        -1.2390   -4.8520   -2.1800 o         1 MOL     -0.513571
     64 C21        -0.0210   -2.8390   -4.1300 c3        1 MOL     -0.355165
     65 C22         0.6000   -1.7980   -3.1990 c         1 MOL      0.597013
     66 N7          1.3010   -2.1510   -2.1370 n         1 MOL     -0.759922
     67 O11         0.5310   -0.5950   -3.4660 o         1 MOL     -0.624497
     68 H28        -2.1440   -0.9060   -3.4020 hn        1 MOL     -0.000185
     69 H29        -1.7990   -3.7350   -4.4740 h1        1 MOL      0.152940
     70 H30         0.0220   -2.5180   -5.1750 hc        1 MOL      0.158646
     71 H31         0.5510   -3.7410   -3.9520 hc        1 MOL      0.158646
     72 H32         1.4530   -3.1140   -1.8830 hn        1 MOL      0.408785
     73 H33         1.7110   -1.4770   -1.5160 hn        1 MOL      0.408785
     74 N8         -2.6340   -3.0990   -1.6040 n         1 MOL     -0.161816
     75 C23        -3.0230   -3.5890   -0.2770 c3        1 MOL     -0.054627
     76 C24        -2.3520   -2.9050    0.9110 c         1 MOL      0.436744
     77 O12        -2.4930   -3.4160    2.0490 o         1 MOL     -0.551348
     78 H34        -2.9450   -2.2100   -1.9460 hn        1 MOL      0.111874
     79 H35        -2.8270   -4.6550   -0.1490 h1        1 MOL      0.109085
     80 H36        -4.1020   -3.5340   -0.1570 h1        1 MOL      0.109085
     81 N9         -1.5440   -1.9600    0.7060 n         1 MOL     -0.086158
     82 C25        -0.6860   -1.4040    1.7560 c3        1 MOL     -0.003840
     83 C26         0.7000   -0.9000    1.2690 c         1 MOL      0.374506
     84 O13         0.9090   -0.4630    0.1350 o         1 MOL     -0.540845
     85 C27        -1.4190   -0.3520    2.5670 c3        1 MOL     -0.106900
     86 C28        -0.6640    0.3730    3.6200 ca        1 MOL      0.108108
     87 C29        -0.4680   -0.2240    4.8770 ca        1 MOL     -0.214933
     88 C30        -0.2530    1.6940    3.4410 ca        1 MOL     -0.214933
     89 C31         0.0610    0.5140    5.9490 ca        1 MOL     -0.220239
     90 C32         0.4250    2.4430    4.4180 ca        1 MOL     -0.220239
     91 C33         0.5580    1.8780    5.6670 ca        1 MOL      0.274041
     92 O14         1.1720    2.4980    6.6890 oh        1 MOL     -0.432950
     93 H37        -1.4600   -1.5560   -0.2210 hn        1 MOL      0.038470
     94 H38        -0.4530   -2.1810    2.4880 h1        1 MOL      0.043198
     95 H39        -2.2710   -0.9180    2.9500 hc        1 MOL      0.089877
     96 H40        -1.9430    0.3560    1.9260 hc        1 MOL      0.089877
     97 H41        -0.9790   -1.1580    5.0480 ha        1 MOL      0.158212
     98 H42        -0.4520    2.1770    2.4960 ha        1 MOL      0.158212
     99 H43         0.1590    0.0290    6.9130 ha        1 MOL      0.162420
    100 H44         0.8650    3.3950    4.2020 ha        1 MOL      0.162420
    101 H45         1.3790    3.3540    6.3150 ho        1 MOL      0.344621
    102 N10         1.7400   -1.0010    2.1390 n         1 MOL     -0.037432
    103 C34         3.0470   -0.5100    1.7760 c3        1 MOL     -0.574893
    104 C35         3.6900   -1.4010    0.7430 c         1 MOL      0.062154
    105 O15         4.5120   -0.9130   -0.0320 o         1 MOL     -0.382885
    106 C36         3.9860   -0.0900    2.9070 c3        1 MOL      0.469517
    107 C37         4.4130   -1.2610    3.8050 c3        1 MOL     -0.019339
    108 C38         3.3740    0.9480    3.8240 c3        1 MOL     -0.646708
    109 C39         5.3230   -0.8580    5.0330 c3        1 MOL     -0.436606
    110 H46         1.5550   -1.3380    3.0760 hn        1 MOL      0.200188
    111 H47         2.9350    0.3760    1.1500 h1        1 MOL      0.270133
    112 H48         4.9100    0.3920    2.5680 hc        1 MOL      0.004779
    113 H49         4.9840   -1.9550    3.1910 hc        1 MOL      0.042979
    114 H50         3.6280   -1.9030    4.2020 hc        1 MOL      0.042979
    115 H51         2.6890    0.5100    4.5480 hc        1 MOL      0.162957
    116 H52         4.2530    1.4550    4.2230 hc        1 MOL      0.162957
    117 H53         2.7970    1.6720    3.2450 hc        1 MOL      0.162957
    118 H54         5.9890   -0.0680    4.6930 hc        1 MOL      0.132412
    119 H55         4.6880   -0.2930    5.7330 hc        1 MOL      0.132412
    120 H56         5.8240   -1.7110    5.4840 hc        1 MOL      0.132412
    121 N11         3.3240   -2.7070    0.6240 n         1 MOL     -0.113905
    122 C40         3.9450   -3.5620   -0.3680 c3        1 MOL     -0.173546
    123 C41         5.4110   -3.8710   -0.3350 c         1 MOL      0.410630
    124 O16         6.1060   -4.0700   -1.3600 o         1 MOL     -0.445912
    125 C42         3.2440   -4.8610   -0.6420 c3        1 MOL      0.334652
    126 O17         1.8740   -4.6840   -0.9730 oh        1 MOL     -0.625007
    127 H57         2.6250   -3.1160    1.2280 hn        1 MOL      0.213607
    128 H58         3.8590   -3.0320   -1.3140 h1        1 MOL      0.089374
    129 H59         3.4360   -5.6270    0.1100 h1        1 MOL      0.027678
    130 H60         3.8190   -5.2560   -1.4720 h1        1 MOL      0.027678
    131 H61         1.3530   -4.7760   -0.1650 ho        1 MOL      0.402681
    132 N12         5.9450   -3.8270    0.8950 n         1 MOL     -0.352343
    133 C43         7.3970   -3.6420    1.1790 c3        1 MOL      0.103865
    134 C44         8.1060   -2.6800    0.1900 c         1 MOL      0.680491
    135 O18         9.2580   -2.8540   -0.1530 o         1 MOL     -0.547115
    136 C45         7.9570   -5.0270    1.3810 c3        1 MOL     -0.219873
    137 H62         5.3730   -3.6880    1.7220 hn        1 MOL      0.234983
    138 H63         7.5180   -3.1530    2.1370 h1        1 MOL      0.067482
    139 H64         8.9640   -5.0870    1.7930 hc        1 MOL      0.069018
    140 H65         7.3890   -5.5540    2.1530 hc        1 MOL      0.069018
    141 H66         7.8950   -5.5760    0.4420 hc        1 MOL      0.069018
    142 N13         7.4290   -1.5990   -0.2160 n         1 MOL     -0.792881
    143 C46         7.9600   -0.5220   -1.0810 c3        1 MOL      0.491009
    144 C47         8.1140    0.8740   -0.3410 c         1 MOL      0.412923
    145 O19         7.4110    1.2180    0.5940 o         1 MOL     -0.474945
    146 C48         7.0780   -0.4960   -2.3190 c3        1 MOL     -0.400862
    147 H67         6.4380   -1.5060   -0.0610 hn        1 MOL      0.351259
    148 H68         8.9440   -0.8290   -1.4370 h1        1 MOL     -0.014839
    149 H69         7.1550   -1.4980   -2.7360 hc        1 MOL      0.102996
    150 H70         6.0870   -0.2600   -1.9240 hc        1 MOL      0.102996
    151 H71         7.4480    0.1300   -3.1340 hc        1 MOL      0.102996
    152 N14         9.1860    1.5850   -0.6790 n         1 MOL     -0.467360
    153 C49         9.6540    2.9060   -0.2340 c3        1 MOL      0.072780
    154 C50        10.0470    2.9270    1.2570 c         1 MOL      0.430852
    155 O20         9.9640    3.9510    1.9370 o         1 MOL     -0.482534
    156 C51         8.7150    4.0640   -0.7420 c3        1 MOL      0.194038
    157 C52         8.8960    4.4800   -2.2260 c3        1 MOL     -0.052839
    158 C53         8.0730    5.7270   -2.4450 c         1 MOL      0.659227
    159 O21         8.5630    6.8720   -2.2920 o         1 MOL     -0.655155
    160 O22         6.9560    5.6560   -3.0640 o         1 MOL     -0.655155
    161 H72         9.8040    1.2800   -1.4090 hn        1 MOL      0.262823
    162 H73        10.5720    3.0570   -0.7930 h1        1 MOL      0.049293
    163 H74         8.8830    5.0030   -0.2200 hc        1 MOL     -0.063040
    164 H75         7.6700    3.7940   -0.6120 hc        1 MOL     -0.063040
    165 H76         8.4850    3.6830   -2.8470 hc        1 MOL     -0.030918
    166 H77         9.9390    4.5300   -2.5280 hc        1 MOL     -0.030918
    167 N15        10.5680    1.8060    1.7360 n         1 MOL     -0.289964
    168 C54        10.7050    1.6900    3.1820 c3        1 MOL     -0.154449
    169 H78        11.4150    2.4340    3.5390 h1        1 MOL      0.086759
    170 H79         9.7370    1.8560    3.6530 h1        1 MOL      0.086759
    171 H80        11.0670    0.6930    3.4340 h1        1 MOL      0.086759
    172 H81        10.5720    0.9800    1.1470 hn        1 MOL      0.229276
    173 Ca1         0.4430    1.3970   -1.7230 Ca        1 MOL      1.801139
    174 O23         2.0850    2.6810    0.0230 oh        1 MOL     -0.858023
    175 H82         3.0100    2.5090   -0.1450 ho        1 MOL      0.431528
    176 H83         2.0950    3.4130    0.6460 ho        1 MOL      0.431528
    177 O24         3.0540    0.4530   -1.8410 oh        1 MOL     -0.858023
    178 H84         3.4460    0.0950   -2.6380 ho        1 MOL      0.431528
    179 H85         3.6420    0.1790   -1.1390 ho        1 MOL      0.431528
    180 O25         1.8430    2.6220   -3.7500 oh        1 MOL     -0.858023
    181 H86         2.1430    3.4440   -4.1450 ho        1 MOL      0.431528
    182 H87         1.8410    2.0010   -4.4730 ho        1 MOL      0.431528
    183 O26        -0.0100    4.1770   -1.7560 oh        1 MOL     -0.858023
    184 H88         0.2810    4.9410   -1.2680 ho        1 MOL      0.431528
    185 H89        -0.0800    4.4780   -2.6620 ho        1 MOL      0.431528
    186 O27        -0.9770    1.7860   -3.8610 oh        1 MOL     -0.858023
    187 H90        -1.2200    1.2720   -4.6410 ho        1 MOL      0.431528
    188 H91        -1.6490    2.4670   -3.8070 ho        1 MOL      0.431528
@<TRIPOS>BOND
     1    1    2 1   
     2    1    4 1   
     3    1    5 1   
     4    1    6 1   
     5    2    3 2   
     6    2    7 1   
     7    7    8 1   
     8    7   15 1   
     9    8    9 1   
    10    8   11 1   
    11    8   16 1   
    12    9   10 2   
    13    9   19 1   
    14   11   12 1   
    15   11   17 1   
    16   11   18 1   
    17   12   13 1   
    18   12   14 1   
    19   19   20 1   
    20   19   28 1   
    21   20   21 1   
    22   20   23 1   
    23   20   29 1   
    24   21   22 2   
    25   21   41 1   
    26   23   24 1   
    27   23   30 1   
    28   23   31 1   
    29   24   25 1   
    30   24   32 1   
    31   24   33 1   
    32   25   26 1   
    33   25   34 1   
    34   25   35 1   
    35   26   27 1   
    36   26   36 1   
    37   26   37 1   
    38   27   38 1   
    39   27   39 1   
    40   27   40 1   
    41   41   42 1   
    42   41   49 1   
    43   42   43 1   
    44   42   45 1   
    45   42   50 1   
    46   43   44 2   
    47   43   53 1   
    48   45   46 1   
    49   45   51 1   
    50   45   52 1   
    51   46   47 1   
    52   46   48 1   
    53   53   54 1   
    54   53   57 1   
    55   54   55 1   
    56   54   58 1   
    57   54   59 1   
    58   55   56 2   
    59   55   60 1   
    60   60   61 1   
    61   60   68 1   
    62   61   62 1   
    63   61   64 1   
    64   61   69 1   
    65   62   63 2   
    66   62   74 1   
    67   64   65 1   
    68   64   70 1   
    69   64   71 1   
    70   65   66 1   
    71   65   67 2   
    72   66   72 1   
    73   66   73 1   
    74   74   75 1   
    75   74   78 1   
    76   75   76 1   
    77   75   79 1   
    78   75   80 1   
    79   76   77 2   
    80   76   81 1   
    81   81   82 1   
    82   81   93 1   
    83   82   83 1   
    84   82   85 1   
    85   82   94 1   
    86   83   84 2   
    87   83  102 1   
    88   85   86 1   
    89   85   95 1   
    90   85   96 1   
    91   86   87 ar  
    92   86   88 ar  
    93   87   89 ar  
    94   87   97 1   
    95   88   90 ar  
    96   88   98 1   
    97   89   91 ar  
    98   89   99 1   
    99   90   91 ar  
   100   90  100 1   
   101   91   92 1   
   102   92  101 1   
   103  102  103 1   
   104  102  110 1   
   105  103  104 1   
   106  103  106 1   
   107  103  111 1   
   108  104  105 2   
   109  104  121 1   
   110  106  107 1   
   111  106  108 1   
   112  106  112 1   
   113  107  109 1   
   114  107  113 1   
   115  107  114 1   
   116  108  115 1   
   117  108  116 1   
   118  108  117 1   
   119  109  118 1   
   120  109  119 1   
   121  109  120 1   
   122  121  122 1   
   123  121  127 1   
   124  122  123 1   
   125  122  125 1   
   126  122  128 1   
   127  123  124 2   
   128  123  132 1   
   129  125  126 1   
   130  125  129 1   
   131  125  130 1   
   132  126  131 1   
   133  132  133 1   
   134  132  137 1   
   135  133  134 1   
   136  133  136 1   
   137  133  138 1   
   138  134  135 2   
   139  134  142 1   
   140  136  139 1   
   141  136  140 1   
   142  136  141 1   
   143  142  143 1   
   144  142  147 1   
   145  143  144 1   
   146  143  146 1   
   147  143  148 1   
   148  144  145 2   
   149  144  152 1   
   150  146  149 1   
   151  146  150 1   
   152  146  151 1   
   153  152  153 1   
   154  152  161 1   
   155  153  154 1   
   156  153  156 1   
   157  153  162 1   
   158  154  155 2   
   159  154  167 1   
   160  156  157 1   
   161  156  163 1   
   162  156  164 1   
   163  157  158 1   
   164  157  165 1   
   165  157  166 1   
   166  158  159 1   
   167  158  160 1   
   168  167  168 1   
   169  167  172 1   
   170  168  169 1   
   171  168  170 1   
   172  168  171 1   
   173  174  175 1   
   174  174  176 1   
   175  177  178 1   
   176  177  179 1   
   177  180  181 1   
   178  180  182 1   
   179  183  184 1   
   180  183  185 1   
   181  186  187 1   
   182  186  188 1   
@<TRIPOS>SUBSTRUCTURE
     1 MOL         1 TEMP              0 ****  ****    0 ROOT
