@<TRIPOS>MOLECULE
MOL
  185   180     1     0     0
SMALL
resp


@<TRIPOS>ATOM
      1 C1         -4.7140    1.2420   -3.0800 c3        1 MOL     -0.473622
      2 C2         -5.9520    1.2750   -2.1030 c         1 MOL      0.559590
      3 O1         -5.7180    0.9890   -0.9440 o         1 MOL     -0.489307
      4 H1         -3.7980    1.1300   -2.5010 hc        1 MOL      0.134117
      5 H2         -4.8140    0.4010   -3.7670 hc        1 MOL      0.134117
      6 H3         -4.6730    2.1710   -3.6470 hc        1 MOL      0.134117
      7 N1         -7.2050    1.6350   -2.4750 n         1 MOL     -0.512222
      8 C3         -8.4190    1.8370   -1.6490 c3        1 MOL      0.292228
      9 C4         -8.6090    0.6820   -0.6310 c         1 MOL      0.300929
     10 O2         -8.9150    0.9540    0.5430 o         1 MOL     -0.401977
     11 C5         -8.4240    3.2480   -1.0370 c3        1 MOL     -0.451168
     12 C6         -9.7160    3.6910   -0.4210 c         1 MOL      0.697354
     13 O3         -9.7160    4.4210    0.6530 o         1 MOL     -0.631159
     14 O4        -10.8230    3.3700   -0.9120 o         1 MOL     -0.631159
     15 H4         -7.3360    1.8970   -3.4420 hn        1 MOL      0.281856
     16 H5         -9.2110    1.6900   -2.3880 h1        1 MOL     -0.006622
     17 H6         -8.0210    3.9550   -1.7720 hc        1 MOL      0.142778
     18 H7         -7.6690    3.1870   -0.2630 hc        1 MOL      0.142778
     19 N2         -8.4250   -0.5850   -1.1030 n         1 MOL     -0.278478
     20 C7         -8.5920   -1.8220   -0.3420 c3        1 MOL     -0.013270
     21 C8         -7.2710   -2.4840    0.2190 c         1 MOL      0.657936
     22 O5         -7.1750   -3.6730    0.2360 o         1 MOL     -0.594095
     23 C9         -9.2790   -2.8100   -1.2090 c3        1 MOL      0.074155
     24 C10       -10.5810   -2.2710   -1.8690 c3        1 MOL     -0.127755
     25 C11       -11.0670   -3.2600   -2.9450 c3        1 MOL     -0.092755
     26 C12       -12.2270   -2.8310   -3.7820 c3        1 MOL      0.177219
     27 N3        -12.8230   -3.9740   -4.5030 n4        1 MOL     -0.221187
     28 H8         -8.1500   -0.6320   -2.0670 hn        1 MOL      0.190750
     29 H9         -9.1610   -1.5910    0.5570 h1        1 MOL      0.070134
     30 H10        -9.6210   -3.6590   -0.6210 hc        1 MOL      0.012539
     31 H11        -8.5820   -3.2020   -1.9580 hc        1 MOL      0.012539
     32 H12       -10.4540   -1.2660   -2.2730 hc        1 MOL      0.076034
     33 H13       -11.3370   -2.2720   -1.0860 hc        1 MOL      0.076034
     34 H14       -11.2460   -4.1990   -2.4160 hc        1 MOL      0.027357
     35 H15       -10.2880   -3.5170   -3.6730 hc        1 MOL      0.027357
     36 H16       -11.9770   -2.0700   -4.5230 hx        1 MOL      0.030314
     37 H17       -12.9490   -2.3700   -3.1030 hx        1 MOL      0.030314
     38 H18       -12.8020   -4.8520   -4.0060 hn        1 MOL      0.223995
     39 H19       -13.7700   -3.7350   -4.7680 hn        1 MOL      0.223995
     40 H20       -12.2290   -4.1930   -5.2830 hn        1 MOL      0.223995
     41 N4         -6.2360   -1.6600    0.4790 n         1 MOL     -0.538320
     42 C13        -4.9060   -2.1940    0.8590 c3        1 MOL      0.188760
     43 C14        -4.7790   -2.1940    2.3860 c         1 MOL      0.439361
     44 O6         -5.1850   -1.2790    3.1100 o         1 MOL     -0.478560
     45 C15        -3.8620   -1.2570    0.1550 c3        1 MOL     -0.395913
     46 C16        -2.4100   -1.7390    0.2100 c         1 MOL      0.888260
     47 O7         -1.8020   -1.8830    1.3170 o         1 MOL     -0.798919
     48 O8         -1.7000   -1.8910   -0.8210 o         1 MOL     -0.798919
     49 H21        -6.2520   -0.6710    0.3070 hn        1 MOL      0.312968
     50 H22        -4.7310   -3.2120    0.5200 h1        1 MOL     -0.000766
     51 H23        -3.8430   -0.3380    0.7520 hc        1 MOL      0.127304
     52 H24        -4.2060   -1.1230   -0.8660 hc        1 MOL      0.127304
     53 N5         -4.0820   -3.2010    2.8920 n         1 MOL     -0.323851
     54 C17        -3.7730   -3.3800    4.2530 c3        1 MOL     -0.085988
     55 C18        -2.9370   -2.3710    5.0310 c         1 MOL      0.559785
     56 O9         -2.7870   -2.3400    6.2340 o         1 MOL     -0.544850
     57 H25        -3.8360   -3.9540    2.2770 hn        1 MOL      0.276692
     58 H26        -3.3440   -4.3810    4.3130 h1        1 MOL      0.069460
     59 H27        -4.6520   -3.5450    4.8980 h1        1 MOL      0.069460
     60 N6         -2.1180   -1.6040    4.2330 n         1 MOL     -0.380370
     61 C19        -1.2200   -0.4820    4.6760 c3        1 MOL     -0.006202
     62 C20        -1.2240    0.7770    3.7690 c         1 MOL      0.467265
     63 O10        -0.8440    1.8920    4.1500 o         1 MOL     -0.528465
     64 C21         0.1620   -1.0410    5.0200 c3        1 MOL     -0.202016
     65 C22         1.1660   -1.0610    3.8610 c         1 MOL      0.652922
     66 N7          2.2520   -0.3170    3.8770 n         1 MOL     -0.746028
     67 O11         0.8860   -1.7080    2.8200 o         1 MOL     -0.653858
     68 H28        -2.0130   -1.9060    3.2780 hn        1 MOL      0.212774
     69 H29        -1.6500   -0.1330    5.6190 h1        1 MOL      0.147523
     70 H30         0.1330   -2.0340    5.4560 hc        1 MOL      0.077691
     71 H31         0.5600   -0.4310    5.8370 hc        1 MOL      0.077691
     72 H32         2.4690    0.2590    4.6810 hn        1 MOL      0.373605
     73 H33         2.9110   -0.2890    3.1200 hn        1 MOL      0.373605
     74 N8         -1.7690    0.6540    2.5590 n         1 MOL     -0.297269
     75 C23        -1.6730    1.6720    1.5470 c3        1 MOL     -0.287428
     76 C24        -0.2650    2.1680    1.2100 c         1 MOL      0.712669
     77 O12         0.7520    1.6380    1.6450 o         1 MOL     -0.493813
     78 H34        -1.8300   -0.2820    2.1830 hn        1 MOL      0.280965
     79 H35        -2.2860    2.5150    1.8770 h1        1 MOL      0.150824
     80 H36        -2.0490    1.2040    0.6410 h1        1 MOL      0.150824
     81 N9         -0.2410    3.2150    0.3540 n         1 MOL     -0.625767
     82 C25         0.9360    3.9360   -0.2340 c3        1 MOL      0.220952
     83 C26         1.9030    2.8710   -0.8030 c         1 MOL      0.477057
     84 O13         1.5400    1.7860   -1.2820 o         1 MOL     -0.511484
     85 C27         0.6010    4.9920   -1.2270 c3        1 MOL     -0.002668
     86 C28        -0.1670    6.2440   -0.8450 ca        1 MOL      0.033603
     87 C29        -1.3520    6.6430   -1.5430 ca        1 MOL     -0.188656
     88 C30         0.2550    6.9780    0.2410 ca        1 MOL     -0.188656
     89 C31        -2.0770    7.7540   -1.1090 ca        1 MOL     -0.216747
     90 C32        -0.5310    7.9870    0.7820 ca        1 MOL     -0.216747
     91 C33        -1.6710    8.4240    0.0510 ca        1 MOL      0.330905
     92 O14        -2.3780    9.4640    0.5740 oh        1 MOL     -0.499924
     93 H37        -1.1580    3.5790    0.1330 hn        1 MOL      0.297009
     94 H38         1.4140    4.5330    0.5490 h1        1 MOL     -0.007011
     95 H39         0.1270    4.4900   -2.0670 hc        1 MOL      0.019514
     96 H40         1.5870    5.3080   -1.5780 hc        1 MOL      0.019514
     97 H41        -1.7930    6.0410   -2.3220 ha        1 MOL      0.140141
     98 H42         1.1670    6.6960    0.7590 ha        1 MOL      0.140141
     99 H43        -2.9930    8.0360   -1.6180 ha        1 MOL      0.152432
    100 H44        -0.2960    8.4750    1.7180 ha        1 MOL      0.152432
    101 H45        -2.0020    9.9890    1.2880 ho        1 MOL      0.377759
    102 N10         3.1320    3.3030   -0.9140 n         1 MOL     -0.525969
    103 C34         4.2050    2.5800   -1.5450 c3        1 MOL     -0.060221
    104 C35         5.2870    2.0090   -0.5980 c         1 MOL      0.815187
    105 O15         5.7920    0.9090   -0.7640 o         1 MOL     -0.648370
    106 C36         4.7240    3.4120   -2.7220 c3        1 MOL      0.039083
    107 C37         3.6510    3.8340   -3.7730 c3        1 MOL     -0.052947
    108 C38         5.6580    2.4930   -3.5320 c3        1 MOL     -0.410944
    109 C39         2.7820    2.7320   -4.3540 c3        1 MOL     -0.112950
    110 H46         3.2200    4.3100   -0.8040 hn        1 MOL      0.302733
    111 H47         3.7270    1.6850   -1.9380 h1        1 MOL      0.156268
    112 H48         5.2580    4.3370   -2.4870 hc        1 MOL      0.013008
    113 H49         4.1520    4.3220   -4.6040 hc        1 MOL      0.031043
    114 H50         2.9480    4.5500   -3.3490 hc        1 MOL      0.031043
    115 H51         5.8220    2.8410   -4.5550 hc        1 MOL      0.122801
    116 H52         6.6110    2.4690   -2.9990 hc        1 MOL      0.122801
    117 H53         5.1940    1.5080   -3.5680 hc        1 MOL      0.122801
    118 H54         1.7370    2.8870   -4.0690 hc        1 MOL      0.044745
    119 H55         2.7440    2.7820   -5.4400 hc        1 MOL      0.044745
    120 H56         3.0010    1.7410   -3.9680 hc        1 MOL      0.044745
    121 N11         5.6040    2.8090    0.4920 n         1 MOL     -0.522504
    122 C40         6.5860    2.3780    1.5160 c3        1 MOL      0.080294
    123 C41         8.0410    2.0110    1.0710 c         1 MOL      0.335513
    124 O16         8.8490    1.6340    1.8420 o         1 MOL     -0.462998
    125 C42         6.7770    3.4440    2.6390 c3        1 MOL      0.114168
    126 O17         5.4760    3.5260    3.2790 oh        1 MOL     -0.601838
    127 H57         5.1070    3.6950    0.4390 hn        1 MOL      0.273833
    128 H58         6.2820    1.4870    2.0620 h1        1 MOL      0.149278
    129 H59         7.0690    4.3950    2.1900 h1        1 MOL      0.053633
    130 H60         7.5150    3.2220    3.4040 h1        1 MOL      0.053633
    131 H61         5.5160    4.1490    4.0030 ho        1 MOL      0.400178
    132 N12         8.4250    2.1740   -0.2230 n         1 MOL     -0.327734
    133 C43         9.5810    1.4710   -0.7950 c3        1 MOL      0.232869
    134 C44         9.7370   -0.0390   -0.4190 c         1 MOL      0.541598
    135 O18        10.8260   -0.6340   -0.5020 o         1 MOL     -0.532035
    136 C45        10.8470    2.3100   -0.4820 c3        1 MOL     -0.232183
    137 H62         7.8310    2.5360   -0.9510 hn        1 MOL      0.180066
    138 H63         9.5410    1.4530   -1.8870 h1        1 MOL      0.029816
    139 H64        10.6380    3.3520   -0.7300 hc        1 MOL      0.060253
    140 H65        11.2410    2.2290    0.5320 hc        1 MOL      0.060253
    141 H66        11.6670    1.9000   -1.0630 hc        1 MOL      0.060253
    142 N13         8.5960   -0.7560   -0.2600 n         1 MOL     -0.820974
    143 C46         8.5090   -2.2190   -0.1340 c3        1 MOL      0.775231
    144 C47         7.3160   -2.8300   -0.8770 c         1 MOL      0.125669
    145 O19         6.4600   -2.0800   -1.4240 o         1 MOL     -0.389961
    146 C48         8.4240   -2.5250    1.4140 c3        1 MOL     -0.195445
    147 H67         7.7250   -0.2460   -0.3110 hn        1 MOL      0.382831
    148 H68         9.4070   -2.7360   -0.4840 h1        1 MOL     -0.100849
    149 H69         7.5300   -2.0140    1.7870 hc        1 MOL      0.043330
    150 H70         8.2490   -3.5990    1.4360 hc        1 MOL      0.043330
    151 H71         9.3610   -2.2850    1.9160 hc        1 MOL      0.043330
    152 N14         7.2100   -4.1590   -0.9540 n         1 MOL     -0.325690
    153 C49         6.2600   -4.9160   -1.9010 c3        1 MOL     -0.060398
    154 C50         6.4190   -4.5290   -3.3790 c         1 MOL      0.458599
    155 O20         5.4090   -4.3280   -4.0740 o         1 MOL     -0.488748
    156 C51         4.8110   -4.6710   -1.2880 c3        1 MOL      0.116592
    157 C52         4.6620   -4.9490    0.2670 c3        1 MOL     -0.177387
    158 C53         3.3120   -4.3410    0.6010 c         1 MOL      0.822345
    159 O21         3.0900   -3.1440    0.8580 o         1 MOL     -0.759426
    160 O22         2.3470   -5.0790    0.7870 o         1 MOL     -0.759426
    161 H72         7.9600   -4.7590   -0.6460 hn        1 MOL      0.254486
    162 H73         6.5560   -5.9560   -1.7690 h1        1 MOL      0.064692
    163 H74         4.1580   -5.2620   -1.9260 hc        1 MOL      0.001563
    164 H75         4.4750   -3.6460   -1.3940 hc        1 MOL      0.001563
    165 H76         5.4300   -4.4360    0.8390 hc        1 MOL      0.009478
    166 H77         4.6810   -6.0220    0.4670 hc        1 MOL      0.009478
    167 N15         7.6960   -4.4750   -3.8670 n         1 MOL     -0.324333
    168 C54         8.0010   -3.9460   -5.2090 c3        1 MOL     -0.110595
    169 H78         7.2070   -3.2690   -5.5220 h1        1 MOL      0.081955
    170 H79         8.9480   -3.4060   -5.1810 h1        1 MOL      0.081955
    171 H80         8.0740   -4.7720   -5.9180 h1        1 MOL      0.081955
    172 H81         8.4500   -4.7950   -3.2760 hn        1 MOL      0.243669
    173 Ca1         0.4700   -2.8900    0.5110 Ca        1 MOL      1.755054
    174 O23        -1.2050   -4.8270   -0.2150 oh        1 MOL     -0.826911
    175 H82        -1.3450   -4.9580   -1.1500 ho        1 MOL      0.411012
    176 H83        -2.0020   -5.1660    0.1900 ho        1 MOL      0.411012
    177 O24        -0.4860   -4.4940    2.5680 oh        1 MOL     -0.826911
    178 H84        -0.0310   -4.3810    3.4030 ho        1 MOL      0.411012
    179 H85        -1.1080   -5.1990    2.7250 ho        1 MOL      0.411012
    180 O25         1.0760   -4.1190   -2.0080 oh        1 MOL     -0.826911
    181 H86         1.6140   -3.7680   -2.7250 ho        1 MOL      0.411012
    182 H87         0.4180   -4.6500   -2.4600 ho        1 MOL      0.411012
    183 O26         1.6270   -0.9050   -0.9790 oh        1 MOL     -0.826911
    184 H88         2.5300   -1.0000   -1.2750 ho        1 MOL      0.411012
    185 H89         1.3860   -0.0040   -1.1970 ho        1 MOL      0.411012
@<TRIPOS>BOND
     1    1    2 1   
     2    1    4 1   
     3    1    5 1   
     4    1    6 1   
     5    2    3 2   
     6    2    7 1   
     7    7    8 1   
     8    7   15 1   
     9    8    9 1   
    10    8   11 1   
    11    8   16 1   
    12    9   10 2   
    13    9   19 1   
    14   11   12 1   
    15   11   17 1   
    16   11   18 1   
    17   12   13 1   
    18   12   14 1   
    19   19   20 1   
    20   19   28 1   
    21   20   21 1   
    22   20   23 1   
    23   20   29 1   
    24   21   22 2   
    25   21   41 1   
    26   23   24 1   
    27   23   30 1   
    28   23   31 1   
    29   24   25 1   
    30   24   32 1   
    31   24   33 1   
    32   25   26 1   
    33   25   34 1   
    34   25   35 1   
    35   26   27 1   
    36   26   36 1   
    37   26   37 1   
    38   27   38 1   
    39   27   39 1   
    40   27   40 1   
    41   41   42 1   
    42   41   49 1   
    43   42   43 1   
    44   42   45 1   
    45   42   50 1   
    46   43   44 2   
    47   43   53 1   
    48   45   46 1   
    49   45   51 1   
    50   45   52 1   
    51   46   47 1   
    52   46   48 1   
    53   53   54 1   
    54   53   57 1   
    55   54   55 1   
    56   54   58 1   
    57   54   59 1   
    58   55   56 2   
    59   55   60 1   
    60   60   61 1   
    61   60   68 1   
    62   61   62 1   
    63   61   64 1   
    64   61   69 1   
    65   62   63 2   
    66   62   74 1   
    67   64   65 1   
    68   64   70 1   
    69   64   71 1   
    70   65   66 1   
    71   65   67 2   
    72   66   72 1   
    73   66   73 1   
    74   74   75 1   
    75   74   78 1   
    76   75   76 1   
    77   75   79 1   
    78   75   80 1   
    79   76   77 2   
    80   76   81 1   
    81   81   82 1   
    82   81   93 1   
    83   82   83 1   
    84   82   85 1   
    85   82   94 1   
    86   83   84 2   
    87   83  102 1   
    88   85   86 1   
    89   85   95 1   
    90   85   96 1   
    91   86   87 ar  
    92   86   88 ar  
    93   87   89 ar  
    94   87   97 1   
    95   88   90 ar  
    96   88   98 1   
    97   89   91 ar  
    98   89   99 1   
    99   90   91 ar  
   100   90  100 1   
   101   91   92 1   
   102   92  101 1   
   103  102  103 1   
   104  102  110 1   
   105  103  104 1   
   106  103  106 1   
   107  103  111 1   
   108  104  105 2   
   109  104  121 1   
   110  106  107 1   
   111  106  108 1   
   112  106  112 1   
   113  107  109 1   
   114  107  113 1   
   115  107  114 1   
   116  108  115 1   
   117  108  116 1   
   118  108  117 1   
   119  109  118 1   
   120  109  119 1   
   121  109  120 1   
   122  121  122 1   
   123  121  127 1   
   124  122  123 1   
   125  122  125 1   
   126  122  128 1   
   127  123  124 2   
   128  123  132 1   
   129  125  126 1   
   130  125  129 1   
   131  125  130 1   
   132  126  131 1   
   133  132  133 1   
   134  132  137 1   
   135  133  134 1   
   136  133  136 1   
   137  133  138 1   
   138  134  135 2   
   139  134  142 1   
   140  136  139 1   
   141  136  140 1   
   142  136  141 1   
   143  142  143 1   
   144  142  147 1   
   145  143  144 1   
   146  143  146 1   
   147  143  148 1   
   148  144  145 2   
   149  144  152 1   
   150  146  149 1   
   151  146  150 1   
   152  146  151 1   
   153  152  153 1   
   154  152  161 1   
   155  153  154 1   
   156  153  156 1   
   157  153  162 1   
   158  154  155 2   
   159  154  167 1   
   160  156  157 1   
   161  156  163 1   
   162  156  164 1   
   163  157  158 1   
   164  157  165 1   
   165  157  166 1   
   166  158  159 1   
   167  158  160 1   
   168  167  168 1   
   169  167  172 1   
   170  168  169 1   
   171  168  170 1   
   172  168  171 1   
   173  174  175 1   
   174  174  176 1   
   175  177  178 1   
   176  177  179 1   
   177  180  181 1   
   178  180  182 1   
   179  183  184 1   
   180  183  185 1   
@<TRIPOS>SUBSTRUCTURE
     1 MOL         1 TEMP              0 ****  ****    0 ROOT
