@<TRIPOS>MOLECULE
MOL
  189   185     1     0     0
SMALL
resp


@<TRIPOS>ATOM
      1 C1          5.2530    5.0320   -2.7440 c3        1 MOL     -0.319058
      2 C2          5.6400    3.8330   -1.7900 c         1 MOL      0.814525
      3 O1          4.8260    3.3120   -1.0430 o         1 MOL     -0.725817
      4 H1          5.9160    5.8760   -2.5530 hc        1 MOL      0.078256
      5 H2          5.3560    4.7170   -3.7830 hc        1 MOL      0.078256
      6 H3          4.2220    5.3300   -2.5540 hc        1 MOL      0.078256
      7 N1          6.8760    3.2580   -1.9280 n         1 MOL     -0.661899
      8 C3          7.3540    1.9910   -1.2860 c3        1 MOL      0.096921
      9 C4          6.2530    0.9280   -1.3550 c         1 MOL      0.430865
     10 O2          5.7050    0.4450   -0.3610 o         1 MOL     -0.434647
     11 C5          8.2650    2.1570   -0.0350 c3        1 MOL     -0.006946
     12 C6          7.5950    2.6920    1.2490 c         1 MOL      0.622122
     13 O3          6.3690    2.9820    1.3160 o         1 MOL     -0.698158
     14 O4          8.3200    2.9010    2.2650 o         1 MOL     -0.698158
     15 H4          7.6330    3.7140   -2.4230 hn        1 MOL      0.320030
     16 H5          8.0220    1.6400   -2.0710 h1        1 MOL      0.024419
     17 H6          9.0760    2.8480   -0.2760 hc        1 MOL      0.011535
     18 H7          8.7460    1.2040    0.1970 hc        1 MOL      0.011535
     19 N2          5.9240    0.5190   -2.5580 n         1 MOL     -0.421367
     20 C7          5.0560   -0.6270   -2.9020 c3        1 MOL      0.019485
     21 C8          5.5860   -2.0290   -2.3930 c         1 MOL      0.435191
     22 O5          5.8230   -2.8670   -3.2160 o         1 MOL     -0.546144
     23 C9          3.5880   -0.3460   -2.5630 c3        1 MOL      0.251627
     24 C10         2.6550   -1.4690   -3.0770 c3        1 MOL     -0.069317
     25 C11         3.1480    0.9800   -3.1690 c3        1 MOL     -0.168938
     26 C12         2.5690   -1.8440   -4.5650 c3        1 MOL     -0.382190
     27 H8          6.2600    1.0940   -3.3140 hn        1 MOL      0.267601
     28 H9          5.0670   -0.6740   -3.9970 h1        1 MOL      0.064844
     29 H10         3.4010   -0.3470   -1.4900 hc        1 MOL     -0.130088
     30 H11         1.6360   -1.2150   -2.7730 hc        1 MOL      0.096469
     31 H12         2.9900   -2.3890   -2.5740 hc        1 MOL      0.096469
     32 H13         3.5550    1.9030   -2.7460 hc        1 MOL      0.025527
     33 H14         3.3540    0.9690   -4.2450 hc        1 MOL      0.025527
     34 H15         2.0720    1.1370   -3.0570 hc        1 MOL      0.025527
     35 H16         1.9380   -2.7230   -4.6500 hc        1 MOL      0.082751
     36 H17         2.0720   -1.0340   -5.0980 hc        1 MOL      0.082751
     37 H18         3.5840   -2.0050   -4.9370 hc        1 MOL      0.082751
     38 N3          5.8910   -2.2340   -1.0830 n         1 MOL     -0.133226
     39 C13         6.2760   -3.4970   -0.4900 c3        1 MOL     -0.010829
     40 C14         5.2270   -4.5960   -0.4550 c         1 MOL      0.590796
     41 O6          5.6610   -5.6990   -0.7840 o         1 MOL     -0.584339
     42 C15         6.8470   -3.3000    0.9620 c3        1 MOL     -0.266053
     43 C16         7.5910   -2.0250    1.1570 c         1 MOL      0.748061
     44 O7          7.2420   -1.2270    2.0540 o         1 MOL     -0.697110
     45 O8          8.5030   -1.8040    0.3240 o         1 MOL     -0.697110
     46 H19         5.8220   -1.4280   -0.4680 hn        1 MOL      0.155117
     47 H20         7.1660   -3.8540   -1.0090 h1        1 MOL      0.078091
     48 H21         7.4230   -4.2060    1.1750 hc        1 MOL      0.064038
     49 H22         6.0640   -3.3970    1.7140 hc        1 MOL      0.064038
     50 N4          3.8780   -4.5060   -0.2240 n         1 MOL     -0.516937
     51 C17         3.1030   -3.4120    0.3780 c3        1 MOL     -0.039081
     52 C18         1.9100   -3.9570    1.2480 c         1 MOL      0.696669
     53 O9          1.5460   -5.1420    1.0310 o         1 MOL     -0.619048
     54 H23         3.3460   -5.3620   -0.1690 hn        1 MOL      0.285287
     55 H24         2.5840   -2.7610   -0.3240 h1        1 MOL      0.091469
     56 H25         3.7880   -2.8210    0.9830 h1        1 MOL      0.091469
     57 N5          1.2800   -3.2680    2.1900 n         1 MOL     -0.542801
     58 C19         1.5510   -1.9060    2.6660 c3        1 MOL      0.115325
     59 C20         1.6630   -0.7990    1.5860 c         1 MOL      0.371736
     60 O10         2.7640   -0.3350    1.3390 o         1 MOL     -0.607937
     61 C21         2.7420   -1.7890    3.7230 c3        1 MOL     -0.164672
     62 C22         2.7510   -2.5810    5.0780 c         1 MOL      0.682099
     63 O11         1.6670   -3.1920    5.3250 o         1 MOL     -0.709320
     64 O12         3.6500   -2.3960    5.9710 o         1 MOL     -0.709320
     65 H26         0.5860   -3.8050    2.6920 hn        1 MOL      0.294649
     66 H27         0.6770   -1.6270    3.2670 h1        1 MOL      0.072043
     67 H28         2.7930   -0.7270    3.9720 hc        1 MOL      0.024960
     68 H29         3.7000   -2.0970    3.3000 hc        1 MOL      0.024960
     69 N6          0.6220   -0.5050    0.7580 n         1 MOL     -0.195287
     70 C23        -0.6580   -1.0530    0.7450 c3        1 MOL     -0.127554
     71 C24        -0.7000   -2.2320   -0.2440 c         1 MOL      0.488059
     72 O13        -0.0360   -2.2980   -1.3010 o         1 MOL     -0.483676
     73 H30         1.0070    0.1260    0.0800 hn        1 MOL      0.184758
     74 H31        -1.3320   -0.2250    0.5110 h1        1 MOL      0.085235
     75 H32        -0.8230   -1.4250    1.7540 h1        1 MOL      0.085235
     76 N7         -1.6980   -3.1160    0.0490 n         1 MOL     -0.431850
     77 C25        -2.0430   -4.2760   -0.7430 c3        1 MOL      0.013340
     78 C26        -2.8690   -3.8700   -1.9790 c         1 MOL      0.329058
     79 O14        -3.7450   -4.6160   -2.4800 o         1 MOL     -0.532804
     80 C27        -2.6980   -5.3770    0.0760 c3        1 MOL      0.244534
     81 C28        -1.7920   -6.0050    1.1020 c3        1 MOL     -0.398032
     82 C29        -2.7210   -7.0540    1.7310 c         1 MOL      0.683037
     83 N8         -2.4420   -8.3730    1.8210 n         1 MOL     -0.800870
     84 O15        -3.8370   -6.8140    2.1580 o         1 MOL     -0.545607
     85 H33        -2.3670   -2.7140    0.6920 hn        1 MOL      0.277098
     86 H34        -1.1070   -4.7890   -0.9850 h1        1 MOL      0.107161
     87 H35        -2.9950   -6.2100   -0.5620 hc        1 MOL     -0.014563
     88 H36        -3.6180   -4.9840    0.5120 hc        1 MOL     -0.014563
     89 H37        -1.3530   -5.3050    1.8250 hc        1 MOL      0.119003
     90 H38        -1.0660   -6.5950    0.5500 hc        1 MOL      0.119003
     91 H39        -1.4940   -8.6790    1.6170 hn        1 MOL      0.352507
     92 H40        -3.2020   -8.9730    2.0880 hn        1 MOL      0.352507
     93 N9         -2.6760   -2.6920   -2.4890 n         1 MOL     -0.034031
     94 C30        -3.2600   -2.2560   -3.7710 c3        1 MOL     -0.058828
     95 C31        -4.7070   -1.9590   -3.7190 c         1 MOL      0.384483
     96 O16        -5.3910   -2.0770   -4.6680 o         1 MOL     -0.520397
     97 C32        -2.5730   -0.9710   -4.2580 c3        1 MOL     -0.000908
     98 C33        -1.0660   -1.2580   -4.5890 c3        1 MOL     -0.076923
     99 C34        -2.5390    0.2160   -3.2560 c3        1 MOL     -0.076923
    100 H41        -1.8160   -2.2170   -2.2410 hn        1 MOL      0.042836
    101 H42        -3.1660   -3.0630   -4.5000 h1        1 MOL      0.106354
    102 H43        -3.0300   -0.6190   -5.1810 hc        1 MOL      0.063213
    103 H44        -1.0070   -1.9560   -5.4320 hc        1 MOL      0.021416
    104 H45        -0.5740   -0.3660   -4.9760 hc        1 MOL      0.021416
    105 H46        -0.4660   -1.6410   -3.7590 hc        1 MOL      0.021416
    106 H47        -2.0630    1.0780   -3.7140 hc        1 MOL      0.021416
    107 H48        -3.5390    0.6120   -3.0570 hc        1 MOL      0.021416
    108 H49        -2.0390   -0.0960   -2.3430 hc        1 MOL      0.021416
    109 N10        -5.1590   -1.6410   -2.4890 n         1 MOL     -0.155284
    110 C35        -6.5690   -1.2800   -2.1600 c3        1 MOL      0.163033
    111 C36        -6.7810    0.2000   -1.9550 c         1 MOL      0.472456
    112 O17        -7.6820    0.8910   -2.5060 o         1 MOL     -0.522242
    113 C37        -7.0020   -2.1240   -0.9280 c3        1 MOL     -0.388476
    114 C38        -6.6340   -3.6140   -0.9710 c         1 MOL      0.644436
    115 N11        -7.0050   -4.3080   -2.0360 n         1 MOL     -0.778811
    116 O18        -6.0870   -4.2740   -0.0640 o         1 MOL     -0.532741
    117 H50        -4.4720   -1.4930   -1.7600 hn        1 MOL      0.166376
    118 H51        -7.1990   -1.3900   -3.0450 h1        1 MOL      0.006066
    119 H52        -8.0910   -2.0500   -0.9230 hc        1 MOL      0.116808
    120 H53        -6.6910   -1.5610   -0.0440 hc        1 MOL      0.116808
    121 H54        -7.3640   -3.8230   -2.8400 hn        1 MOL      0.371570
    122 H55        -6.4970   -5.1780   -2.0720 hn        1 MOL      0.371570
    123 N12        -5.8880    0.7640   -1.1110 n         1 MOL     -0.358105
    124 C39        -6.0890    2.0690   -0.4780 c3        1 MOL      0.112512
    125 C40        -4.9040    2.7490    0.1040 c         1 MOL      0.584246
    126 O19        -3.8470    2.1330    0.3310 o         1 MOL     -0.472517
    127 C41        -7.2160    1.9400    0.5200 c3        1 MOL     -0.227969
    128 C42        -7.0190    0.9060    1.6270 ca        1 MOL      0.010756
    129 C43        -8.0950    0.0650    1.8710 ca        1 MOL     -0.078893
    130 C44        -5.8320    0.6910    2.3820 ca        1 MOL     -0.078893
    131 C45        -8.0670   -0.8390    2.9550 ca        1 MOL     -0.287511
    132 C46        -5.7860   -0.2110    3.4140 ca        1 MOL     -0.287511
    133 C47        -6.9040   -0.9790    3.7100 ca        1 MOL      0.368270
    134 O20        -6.8270   -1.8770    4.7540 oh        1 MOL     -0.553300
    135 H56        -5.0840    0.2220   -0.8290 hn        1 MOL      0.195672
    136 H57        -6.4240    2.6940   -1.3040 h1        1 MOL      0.027926
    137 H58        -8.0590    1.5990   -0.0960 hc        1 MOL      0.083112
    138 H59        -7.4690    2.9010    0.9520 hc        1 MOL      0.083112
    139 H60        -9.0410    0.1620    1.3710 ha        1 MOL      0.098179
    140 H61        -4.9500    1.2820    2.1730 ha        1 MOL      0.098179
    141 H62        -8.9370   -1.4280    3.2260 ha        1 MOL      0.154883
    142 H63        -4.8500   -0.4140    3.9260 ha        1 MOL      0.154883
    143 H64        -5.9410   -1.8130    5.1130 ho        1 MOL      0.415754
    144 N13        -5.0300    4.0740    0.3060 n         1 MOL     -0.598713
    145 C48        -4.1580    5.0110    0.9860 c3        1 MOL      0.216844
    146 C49        -2.8640    5.3040    0.2300 c         1 MOL      0.404692
    147 O21        -2.3400    6.3950    0.3870 o         1 MOL     -0.539913
    148 C50        -4.0810    4.7370    2.5180 c3        1 MOL     -0.233337
    149 C51        -3.0670    5.5530    3.2770 c3        1 MOL     -0.237224
    150 C52        -3.2590    5.4300    4.7830 c         1 MOL      0.713198
    151 O22        -2.9180    4.3500    5.3350 o         1 MOL     -0.737983
    152 O23        -3.6900    6.4230    5.4240 o         1 MOL     -0.737983
    153 H65        -5.8620    4.5500   -0.0260 hn        1 MOL      0.297772
    154 H66        -4.7500    5.9340    1.0480 h1        1 MOL      0.049074
    155 H67        -3.8000    3.7090    2.7220 hc        1 MOL      0.110801
    156 H68        -5.0740    4.8990    2.9520 hc        1 MOL      0.110801
    157 H69        -3.1400    6.6340    3.1370 hc        1 MOL      0.068665
    158 H70        -2.0460    5.3070    3.0160 hc        1 MOL      0.068665
    159 N14        -2.4320    4.4280   -0.6790 n         1 MOL     -0.303168
    160 C53        -1.2650    4.6770   -1.4870 c3        1 MOL      0.097826
    161 C54        -1.4440    5.7220   -2.6750 c         1 MOL      0.337241
    162 O24        -0.4890    6.0330   -3.4000 o         1 MOL     -0.502278
    163 C55        -0.6700    3.3270   -1.9620 c3        1 MOL     -0.277055
    164 C56        -0.3290    2.2420   -0.9130 c3        1 MOL      0.427133
    165 C57         0.8040    2.6850   -0.0640 c         1 MOL      0.532859
    166 O25         1.8980    2.0580   -0.1120 o         1 MOL     -0.623871
    167 O26         0.6330    3.5950    0.7370 o         1 MOL     -0.623871
    168 H71        -3.0950    3.7660   -1.0770 hn        1 MOL      0.164904
    169 H72        -0.4770    5.2120   -0.9410 h1        1 MOL      0.122192
    170 H73         0.2100    3.6240   -2.5340 hc        1 MOL      0.056360
    171 H74        -1.3930    2.8850   -2.6390 hc        1 MOL      0.056360
    172 H75        -0.1460    1.4000   -1.5910 hc        1 MOL     -0.092860
    173 H76        -1.1970    2.0450   -0.2920 hc        1 MOL     -0.092860
    174 N15        -2.5850    6.4050   -2.6630 n         1 MOL     -0.072590
    175 C58        -3.0770    7.2550   -3.6730 c3        1 MOL     -0.282577
    176 H77        -2.4830    8.1680   -3.7010 h1        1 MOL      0.098814
    177 H78        -3.0110    6.7510   -4.6370 h1        1 MOL      0.098814
    178 H79        -4.1180    7.5050   -3.4630 h1        1 MOL      0.098814
    179 H80        -3.2560    6.1330   -1.9620 hn        1 MOL      0.165598
    180 Ca1         4.0480    1.9230    1.1410 Ca        1 MOL      1.740461
    181 O27         5.4820    0.3830    2.9400 oh        1 MOL     -0.851039
    182 H81         5.7440    0.4190    3.8620 ho        1 MOL      0.418420
    183 H82         6.1010   -0.2290    2.5400 ho        1 MOL      0.418420
    184 O28         2.7960    2.5470    3.7370 oh        1 MOL     -0.851039
    185 H83         3.0570    2.2690    4.6210 ho        1 MOL      0.418420
    186 H84         1.8600    2.3460    3.6920 ho        1 MOL      0.418420
    187 O29         3.2030    4.4460    1.3700 oh        1 MOL     -0.851039
    188 H85         2.3340    4.2310    1.0190 ho        1 MOL      0.418420
    189 H86         3.2150    5.3990    1.3910 ho        1 MOL      0.418420
@<TRIPOS>BOND
     1    1    2 1   
     2    1    4 1   
     3    1    5 1   
     4    1    6 1   
     5    2    3 2   
     6    2    7 1   
     7    7    8 1   
     8    7   15 1   
     9    8    9 1   
    10    8   11 1   
    11    8   16 1   
    12    9   10 2   
    13    9   19 1   
    14   11   12 1   
    15   11   17 1   
    16   11   18 1   
    17   12   13 1   
    18   12   14 1   
    19   19   20 1   
    20   19   27 1   
    21   20   21 1   
    22   20   23 1   
    23   20   28 1   
    24   21   22 2   
    25   21   38 1   
    26   23   24 1   
    27   23   25 1   
    28   23   29 1   
    29   24   26 1   
    30   24   30 1   
    31   24   31 1   
    32   25   32 1   
    33   25   33 1   
    34   25   34 1   
    35   26   35 1   
    36   26   36 1   
    37   26   37 1   
    38   38   39 1   
    39   38   46 1   
    40   39   40 1   
    41   39   42 1   
    42   39   47 1   
    43   40   41 2   
    44   40   50 1   
    45   42   43 1   
    46   42   48 1   
    47   42   49 1   
    48   43   44 1   
    49   43   45 1   
    50   50   51 1   
    51   50   54 1   
    52   51   52 1   
    53   51   55 1   
    54   51   56 1   
    55   52   53 2   
    56   52   57 1   
    57   57   58 1   
    58   57   65 1   
    59   58   59 1   
    60   58   61 1   
    61   58   66 1   
    62   59   60 2   
    63   59   69 1   
    64   61   62 1   
    65   61   67 1   
    66   61   68 1   
    67   62   63 1   
    68   62   64 1   
    69   69   70 1   
    70   69   73 1   
    71   70   71 1   
    72   70   74 1   
    73   70   75 1   
    74   71   72 2   
    75   71   76 1   
    76   76   77 1   
    77   76   85 1   
    78   77   78 1   
    79   77   80 1   
    80   77   86 1   
    81   78   79 2   
    82   78   93 1   
    83   80   81 1   
    84   80   87 1   
    85   80   88 1   
    86   81   82 1   
    87   81   89 1   
    88   81   90 1   
    89   82   83 1   
    90   82   84 2   
    91   83   91 1   
    92   83   92 1   
    93   93   94 1   
    94   93  100 1   
    95   94   95 1   
    96   94   97 1   
    97   94  101 1   
    98   95   96 2   
    99   95  109 1   
   100   97   98 1   
   101   97   99 1   
   102   97  102 1   
   103   98  103 1   
   104   98  104 1   
   105   98  105 1   
   106   99  106 1   
   107   99  107 1   
   108   99  108 1   
   109  109  110 1   
   110  109  117 1   
   111  110  111 1   
   112  110  113 1   
   113  110  118 1   
   114  111  112 2   
   115  111  123 1   
   116  113  114 1   
   117  113  119 1   
   118  113  120 1   
   119  114  115 1   
   120  114  116 2   
   121  115  121 1   
   122  115  122 1   
   123  123  124 1   
   124  123  135 1   
   125  124  125 1   
   126  124  127 1   
   127  124  136 1   
   128  125  126 2   
   129  125  144 1   
   130  127  128 1   
   131  127  137 1   
   132  127  138 1   
   133  128  129 ar  
   134  128  130 ar  
   135  129  131 ar  
   136  129  139 1   
   137  130  132 ar  
   138  130  140 1   
   139  131  133 ar  
   140  131  141 1   
   141  132  133 ar  
   142  132  142 1   
   143  133  134 1   
   144  134  143 1   
   145  144  145 1   
   146  144  153 1   
   147  145  146 1   
   148  145  148 1   
   149  145  154 1   
   150  146  147 2   
   151  146  159 1   
   152  148  149 1   
   153  148  155 1   
   154  148  156 1   
   155  149  150 1   
   156  149  157 1   
   157  149  158 1   
   158  150  151 1   
   159  150  152 1   
   160  159  160 1   
   161  159  168 1   
   162  160  161 1   
   163  160  163 1   
   164  160  169 1   
   165  161  162 2   
   166  161  174 1   
   167  163  164 1   
   168  163  170 1   
   169  163  171 1   
   170  164  165 1   
   171  164  172 1   
   172  164  173 1   
   173  165  166 1   
   174  165  167 1   
   175  174  175 1   
   176  174  179 1   
   177  175  176 1   
   178  175  177 1   
   179  175  178 1   
   180  181  182 1   
   181  181  183 1   
   182  184  185 1   
   183  184  186 1   
   184  187  188 1   
   185  187  189 1   
@<TRIPOS>SUBSTRUCTURE
     1 MOL         1 TEMP              0 ****  ****    0 ROOT
