@<TRIPOS>MOLECULE
MOL
  204   195     1     0     0
SMALL
resp


@<TRIPOS>ATOM
      1 C1         -3.8150   -3.4160    2.6900 c3        1 MOL     -0.301205
      2 C2         -3.0440   -3.9640    1.4150 c         1 MOL      0.555636
      3 O1         -2.5220   -3.1240    0.6640 o         1 MOL     -0.521738
      4 H1         -4.3570   -2.5080    2.4240 hc        1 MOL      0.080970
      5 H2         -4.5200   -4.1700    3.0400 hc        1 MOL      0.080970
      6 H3         -3.0980   -3.1930    3.4800 hc        1 MOL      0.080970
      7 N1         -2.8360   -5.3010    1.2290 n         1 MOL     -0.495421
      8 C3         -1.9980   -5.8750    0.1950 c3        1 MOL     -0.010595
      9 C4         -0.5650   -5.4730    0.1690 c         1 MOL      0.646795
     10 O2          0.0180   -5.3880   -0.8690 o         1 MOL     -0.524653
     11 C5         -2.7230   -5.7850   -1.1880 c3        1 MOL     -0.043435
     12 C6         -4.0540   -6.5240   -1.1780 c         1 MOL      0.654951
     13 O3         -5.0700   -5.9260   -0.6800 o         1 MOL     -0.687146
     14 O4         -4.0690   -7.6760   -1.6360 o         1 MOL     -0.687146
     15 H4         -3.3630   -5.9080    1.8420 hn        1 MOL      0.298980
     16 H5         -1.9570   -6.9100    0.5240 h1        1 MOL      0.095420
     17 H6         -2.0730   -6.1620   -1.9710 hc        1 MOL      0.026026
     18 H7         -2.9220   -4.7600   -1.4740 hc        1 MOL      0.026026
     19 N2          0.0770   -5.2450    1.2810 n         1 MOL     -0.552506
     20 C7          1.5350   -5.1120    1.3920 c3        1 MOL      0.026142
     21 C8          2.3170   -6.2310    0.7110 c         1 MOL      0.366840
     22 O5          1.9040   -7.3760    0.5760 o         1 MOL     -0.516612
     23 C9          1.9180   -4.8330    2.8270 c3        1 MOL      0.183507
     24 C10         1.2780   -5.7830    3.8290 c3        1 MOL      0.263838
     25 C11         1.4680   -3.4010    3.1580 c3        1 MOL     -0.572277
     26 C12         2.0670   -5.8590    5.1640 c3        1 MOL     -0.284921
     27 H8         -0.4120   -5.0640    2.1470 hn        1 MOL      0.246333
     28 H9          1.7940   -4.2320    0.7950 h1        1 MOL      0.091199
     29 H10         2.9970   -4.9910    2.8190 hc        1 MOL      0.043800
     30 H11         1.1750   -6.7930    3.4220 hc        1 MOL     -0.048917
     31 H12         0.2620   -5.4710    4.0610 hc        1 MOL     -0.048917
     32 H13         0.3890   -3.2690    3.1120 hc        1 MOL      0.141862
     33 H14         1.7070   -3.2360    4.2050 hc        1 MOL      0.141862
     34 H15         1.9150   -2.6990    2.4490 hc        1 MOL      0.141862
     35 H16         1.7800   -6.6770    5.8140 hc        1 MOL      0.050957
     36 H17         3.1070   -5.9490    4.8500 hc        1 MOL      0.050957
     37 H18         1.8820   -4.9410    5.7330 hc        1 MOL      0.050957
     38 N3          3.5350   -5.9520    0.2910 n         1 MOL     -0.341872
     39 C13         4.4010   -4.7840    0.4960 c3        1 MOL      0.044868
     40 C14         4.4270   -3.8380   -0.7830 c         1 MOL      0.376994
     41 O6          4.9240   -2.7320   -0.6150 o         1 MOL     -0.505993
     42 C15         5.9060   -5.2280    0.7590 c3        1 MOL     -0.153256
     43 C16         6.5610   -6.3240   -0.1760 c         1 MOL      0.722337
     44 O7          5.8770   -6.8860   -1.0900 o         1 MOL     -0.710327
     45 O8          7.6830   -6.7130    0.2780 o         1 MOL     -0.710327
     46 H19         4.0480   -6.7340   -0.0770 hn        1 MOL      0.277016
     47 H20         4.2110   -4.1110    1.3280 h1        1 MOL      0.021110
     48 H21         5.8460   -5.6800    1.7480 hc        1 MOL      0.024472
     49 H22         6.4880   -4.3070    0.7710 hc        1 MOL      0.024472
     50 N4          4.0630   -4.3170   -1.9660 n         1 MOL     -0.155528
     51 C17         3.9940   -3.6550   -3.2760 c3        1 MOL     -0.402563
     52 C18         5.3450   -3.0710   -3.6600 c         1 MOL      0.699523
     53 O9          6.2620   -3.8120   -4.0260 o         1 MOL     -0.560466
     54 H23         3.7340   -5.2620   -2.0280 hn        1 MOL      0.276835
     55 H24         3.2920   -2.8300   -3.1870 h1        1 MOL      0.149724
     56 H25         3.7210   -4.4090   -4.0170 h1        1 MOL      0.149724
     57 N5          5.4270   -1.7350   -3.4880 n         1 MOL     -0.612039
     58 C19         6.5850   -0.8990   -3.6880 c3        1 MOL      0.330312
     59 C20         7.4860   -0.7510   -2.4830 c         1 MOL      0.245370
     60 O10         8.6690   -0.4120   -2.5920 o         1 MOL     -0.547050
     61 C21         6.1180    0.4440   -4.1910 c3        1 MOL     -0.451671
     62 C22         4.9890    1.0850   -3.4680 c         1 MOL      0.871516
     63 O11         3.8900    1.1410   -3.9620 o         1 MOL     -0.737012
     64 O12         5.1520    1.4860   -2.3420 o         1 MOL     -0.737012
     65 H26         4.6680   -1.2400   -3.0270 hn        1 MOL      0.347092
     66 H27         7.2490   -1.2950   -4.4650 h1        1 MOL      0.047393
     67 H28         5.9900    0.3330   -5.2620 hc        1 MOL      0.076928
     68 H29         6.9730    1.1070   -4.0680 hc        1 MOL      0.076928
     69 N6          7.0180   -1.0070   -1.2520 n         1 MOL      0.051379
     70 C23         7.6220   -0.6450    0.0810 c3        1 MOL     -0.412352
     71 C24         7.6570    0.8780    0.5040 c         1 MOL      0.556873
     72 O13         8.2900    1.1990    1.5320 o         1 MOL     -0.606051
     73 H30         6.1520   -1.5260   -1.2230 hn        1 MOL      0.144842
     74 H31         8.6750   -0.8970   -0.0660 h1        1 MOL      0.153649
     75 H32         7.1700   -1.2180    0.8950 h1        1 MOL      0.153649
     76 N7          7.0600    1.7510   -0.2960 n         1 MOL     -0.106447
     77 C25         7.1040    3.2370   -0.1480 c3        1 MOL     -0.032897
     78 C26         6.6390    3.7700    1.2650 c         1 MOL      0.403792
     79 O14         6.9210    4.9310    1.5900 o         1 MOL     -0.507688
     80 C27         8.3810    3.8470   -0.7100 c3        1 MOL      0.024899
     81 C28         8.7240    3.2990   -2.1290 c3        1 MOL     -0.026449
     82 C29         9.9930    3.9620   -2.6280 c         1 MOL      0.543119
     83 N8         10.8470    3.1840   -3.2380 n         1 MOL     -0.735668
     84 O15        10.2730    5.1520   -2.3570 o         1 MOL     -0.574055
     85 H33         6.4600    1.4120   -1.0410 hn        1 MOL      0.074609
     86 H34         6.2460    3.5560   -0.7340 h1        1 MOL      0.120535
     87 H35         9.2380    3.6370   -0.0580 hc        1 MOL      0.025172
     88 H36         8.3280    4.9370   -0.6920 hc        1 MOL      0.025172
     89 H37         7.9040    3.5620   -2.8070 hc        1 MOL      0.037296
     90 H38         8.8640    2.2180   -2.1270 hc        1 MOL      0.037296
     91 H39        10.7330    2.2200   -3.5300 hn        1 MOL      0.338455
     92 H40        11.8030    3.5130   -3.2060 hn        1 MOL      0.338455
     93 N9          5.8480    3.0280    2.0600 n         1 MOL     -0.271045
     94 C30         5.2610    3.4710    3.2950 c3        1 MOL     -0.070333
     95 C31         3.7060    3.5790    3.4580 c         1 MOL      0.471941
     96 O16         3.1330    4.1130    4.3710 o         1 MOL     -0.525952
     97 C32         5.8040    2.6780    4.4980 c3        1 MOL      0.326381
     98 C33         5.4400    1.1830    4.3650 c3        1 MOL     -0.237003
     99 C34         7.2850    2.8970    4.8010 c3        1 MOL     -0.237003
    100 H41         5.7490    2.0770    1.7420 hn        1 MOL      0.211876
    101 H42         5.6210    4.4550    3.5640 h1        1 MOL      0.077186
    102 H43         5.2820    3.0160    5.3880 hc        1 MOL     -0.050859
    103 H44         4.3870    1.1010    4.1290 hc        1 MOL      0.043785
    104 H45         5.9100    0.7230    3.4940 hc        1 MOL      0.043785
    105 H46         5.6610    0.5630    5.2390 hc        1 MOL      0.043785
    106 H47         7.5160    3.9260    5.0750 hc        1 MOL      0.043785
    107 H48         7.5120    2.2710    5.6630 hc        1 MOL      0.043785
    108 H49         8.0230    2.6010    4.0550 hc        1 MOL      0.043785
    109 N10         3.0560    3.0250    2.4540 n         1 MOL     -0.274418
    110 C35         1.5940    2.9630    2.2610 c3        1 MOL      0.073541
    111 C36         1.1390    3.5620    0.8990 c         1 MOL      0.653909
    112 O17         1.9590    3.9930    0.1390 o         1 MOL     -0.552531
    113 C37         1.2170    1.4270    2.2070 c3        1 MOL     -0.325144
    114 C38         1.5730    0.8500    3.6040 c         1 MOL      0.620561
    115 N11         2.2610   -0.2680    3.6150 n         1 MOL     -0.723367
    116 O18         1.2990    1.3580    4.6490 o         1 MOL     -0.522011
    117 H50         3.5890    2.7150    1.6550 hn        1 MOL      0.182478
    118 H51         1.1230    3.4680    3.0950 h1        1 MOL      0.063226
    119 H52         1.7700    0.9040    1.4360 hc        1 MOL      0.122683
    120 H53         0.1600    1.1810    2.1240 hc        1 MOL      0.122683
    121 H54         2.6830   -0.5830    2.7600 hn        1 MOL      0.333920
    122 H55         2.5410   -0.7680    4.4490 hn        1 MOL      0.333920
    123 N12        -0.1000    3.7590    0.6420 n         1 MOL     -0.521325
    124 C39        -0.6440    4.3060   -0.5830 c3        1 MOL      0.001640
    125 C40        -2.0770    4.8340   -0.4060 c         1 MOL      0.692547
    126 O19        -2.8260    4.2930    0.4210 o         1 MOL     -0.543128
    127 C41        -0.5290    3.3620   -1.7310 c3        1 MOL     -0.314886
    128 C42        -1.3130    2.0830   -1.5950 ca        1 MOL      0.081964
    129 C43        -0.7830    0.9550   -0.9180 ca        1 MOL     -0.125289
    130 C44        -2.6350    2.0300   -2.0750 ca        1 MOL     -0.125289
    131 C45        -1.5050   -0.2420   -0.7710 ca        1 MOL     -0.320885
    132 C46        -3.3370    0.8120   -1.9430 ca        1 MOL     -0.320885
    133 C47        -2.7420   -0.3370   -1.3720 ca        1 MOL      0.418062
    134 O20        -3.4960   -1.4920   -1.1810 oh        1 MOL     -0.572797
    135 H56        -0.7650    3.4350    1.3300 hn        1 MOL      0.271192
    136 H57        -0.0480    5.1940   -0.7880 h1        1 MOL      0.100463
    137 H58         0.5120    3.1070   -1.9470 hc        1 MOL      0.142713
    138 H59        -0.8560    3.8540   -2.6540 hc        1 MOL      0.142713
    139 H60         0.1080    1.1590   -0.3480 ha        1 MOL      0.116652
    140 H61        -3.2240    2.8200   -2.5250 ha        1 MOL      0.116652
    141 H62        -1.0860   -1.1190   -0.2880 ha        1 MOL      0.173105
    142 H63        -4.3670    0.8190   -2.2590 ha        1 MOL      0.173105
    143 H64        -3.0790   -2.1750   -0.6550 ho        1 MOL      0.414198
    144 N13        -2.5000    5.8270   -1.2040 n         1 MOL     -0.678904
    145 C48        -3.8050    6.5470   -0.9170 c3        1 MOL      0.052297
    146 C49        -4.9260    6.2100   -1.9310 c         1 MOL      0.680288
    147 O21        -5.1150    6.9380   -2.8990 o         1 MOL     -0.608206
    148 C50        -3.6350    8.0100   -0.5480 c3        1 MOL     -0.030286
    149 C51        -4.9880    8.4630    0.0610 c3        1 MOL     -0.221176
    150 C52        -4.8950    9.9740    0.4780 c         1 MOL      0.681336
    151 O22        -5.2860   10.7830   -0.3640 o         1 MOL     -0.678536
    152 O23        -4.2950   10.3350    1.5160 o         1 MOL     -0.678536
    153 H65        -1.9860    6.2760   -1.9470 hn        1 MOL      0.355646
    154 H66        -4.2060    6.0730   -0.0220 h1        1 MOL      0.106860
    155 H67        -3.3080    8.6790   -1.3360 hc        1 MOL      0.057500
    156 H68        -2.9160    7.9770    0.2680 hc        1 MOL      0.057500
    157 H69        -5.3450    7.8690    0.8950 hc        1 MOL      0.043494
    158 H70        -5.8160    8.3390   -0.6520 hc        1 MOL      0.043494
    159 N14        -5.7950    5.2580   -1.8010 n         1 MOL     -0.582445
    160 C53        -5.7110    4.0740   -0.9230 c3        1 MOL      0.030872
    161 C54        -6.1470    4.4970    0.5170 c         1 MOL      0.573063
    162 O24        -7.0090    5.3020    0.7440 o         1 MOL     -0.552487
    163 C55        -6.8100    3.0990   -1.3670 c3        1 MOL     -0.283352
    164 C56        -6.6630    1.7570   -0.5840 c3        1 MOL     -0.391941
    165 C57        -7.4510    0.6040   -1.2810 c         1 MOL      0.990203
    166 O25        -7.2580   -0.5360   -0.9550 o         1 MOL     -0.798921
    167 O26        -8.3450    0.8760   -2.1220 o         1 MOL     -0.798921
    168 H71        -6.6240    5.2950   -2.3730 hn        1 MOL      0.323307
    169 H72        -4.7320    3.6040   -0.8860 h1        1 MOL      0.137800
    170 H73        -6.6720    2.7510   -2.3960 hc        1 MOL      0.132792
    171 H74        -7.8280    3.4370   -1.1460 hc        1 MOL      0.132792
    172 H75        -7.0720    1.7680    0.4370 hc        1 MOL      0.087803
    173 H76        -5.6140    1.4820   -0.5010 hc        1 MOL      0.087803
    174 N15        -5.4540    3.9580    1.5000 n         1 MOL     -0.247035
    175 C58        -5.7980    3.9380    2.9340 c3        1 MOL     -0.240329
    176 H77        -6.5700    4.6820    3.1320 h1        1 MOL      0.099846
    177 H78        -6.1680    2.9500    3.2050 h1        1 MOL      0.099846
    178 H79        -4.9110    4.1710    3.5250 h1        1 MOL      0.099846
    179 H80        -4.4820    3.8140    1.2490 hn        1 MOL      0.196372
    180 Ca1        -8.5850   -2.7960   -0.2260 Ca        1 MOL      1.760303
    181 O27       -10.2400   -0.8640    0.2900 oh        1 MOL     -0.815227
    182 H81       -11.1910   -0.9460    0.3790 ho        1 MOL      0.387344
    183 H82       -10.1000    0.0660    0.0840 ho        1 MOL      0.387344
    184 O28       -10.0670   -3.7700    1.7800 oh        1 MOL     -0.815227
    185 H83        -9.9840   -3.7900    2.7370 ho        1 MOL      0.387344
    186 H84       -10.8740   -4.2560    1.6040 ho        1 MOL      0.387344
    187 O29        -6.8350   -4.7010    0.7150 oh        1 MOL     -0.815227
    188 H85        -6.1510   -5.0770    0.1570 ho        1 MOL      0.387344
    189 H86        -6.9360   -5.3380    1.4260 ho        1 MOL      0.387344
    190 O30       -11.3660   -3.2830   -0.6750 oh        1 MOL     -0.815227
    191 H87       -11.5610   -2.7790   -1.4710 ho        1 MOL      0.387344
    192 H88       -12.1410   -3.1840   -0.1340 ho        1 MOL      0.387344
    193 O31        -9.4520   -1.7970   -2.4760 oh        1 MOL     -0.815227
    194 H89        -9.9110   -1.8470   -3.3210 ho        1 MOL      0.387344
    195 H90        -9.0300   -0.9420   -2.4860 ho        1 MOL      0.387344
    196 O32        -7.7470   -1.7010    2.0070 oh        1 MOL     -0.815227
    197 H91        -7.9560   -0.8410    2.3640 ho        1 MOL      0.387344
    198 H92        -7.4120   -2.1990    2.7550 ho        1 MOL      0.387344
    199 O33        -6.5060   -3.5210   -1.7910 oh        1 MOL     -0.815227
    200 H93        -5.9140   -2.8600   -2.1410 ho        1 MOL      0.387344
    201 H94        -6.1070   -4.3540   -2.0470 ho        1 MOL      0.387344
    202 O34        -9.1010   -5.1910   -1.4630 oh        1 MOL     -0.815227
    203 H95        -8.3300   -5.7480   -1.3680 ho        1 MOL      0.387344
    204 H96        -9.6380   -5.6260   -2.1250 ho        1 MOL      0.387344
@<TRIPOS>BOND
     1    1    2 1   
     2    1    4 1   
     3    1    5 1   
     4    1    6 1   
     5    2    3 2   
     6    2    7 1   
     7    7    8 1   
     8    7   15 1   
     9    8    9 1   
    10    8   11 1   
    11    8   16 1   
    12    9   10 2   
    13    9   19 1   
    14   11   12 1   
    15   11   17 1   
    16   11   18 1   
    17   12   13 1   
    18   12   14 1   
    19   19   20 1   
    20   19   27 1   
    21   20   21 1   
    22   20   23 1   
    23   20   28 1   
    24   21   22 2   
    25   21   38 1   
    26   23   24 1   
    27   23   25 1   
    28   23   29 1   
    29   24   26 1   
    30   24   30 1   
    31   24   31 1   
    32   25   32 1   
    33   25   33 1   
    34   25   34 1   
    35   26   35 1   
    36   26   36 1   
    37   26   37 1   
    38   38   39 1   
    39   38   46 1   
    40   39   40 1   
    41   39   42 1   
    42   39   47 1   
    43   40   41 2   
    44   40   50 1   
    45   42   43 1   
    46   42   48 1   
    47   42   49 1   
    48   43   44 1   
    49   43   45 1   
    50   50   51 1   
    51   50   54 1   
    52   51   52 1   
    53   51   55 1   
    54   51   56 1   
    55   52   53 2   
    56   52   57 1   
    57   57   58 1   
    58   57   65 1   
    59   58   59 1   
    60   58   61 1   
    61   58   66 1   
    62   59   60 2   
    63   59   69 1   
    64   61   62 1   
    65   61   67 1   
    66   61   68 1   
    67   62   63 1   
    68   62   64 1   
    69   69   70 1   
    70   69   73 1   
    71   70   71 1   
    72   70   74 1   
    73   70   75 1   
    74   71   72 2   
    75   71   76 1   
    76   76   77 1   
    77   76   85 1   
    78   77   78 1   
    79   77   80 1   
    80   77   86 1   
    81   78   79 2   
    82   78   93 1   
    83   80   81 1   
    84   80   87 1   
    85   80   88 1   
    86   81   82 1   
    87   81   89 1   
    88   81   90 1   
    89   82   83 1   
    90   82   84 2   
    91   83   91 1   
    92   83   92 1   
    93   93   94 1   
    94   93  100 1   
    95   94   95 1   
    96   94   97 1   
    97   94  101 1   
    98   95   96 2   
    99   95  109 1   
   100   97   98 1   
   101   97   99 1   
   102   97  102 1   
   103   98  103 1   
   104   98  104 1   
   105   98  105 1   
   106   99  106 1   
   107   99  107 1   
   108   99  108 1   
   109  109  110 1   
   110  109  117 1   
   111  110  111 1   
   112  110  113 1   
   113  110  118 1   
   114  111  112 2   
   115  111  123 1   
   116  113  114 1   
   117  113  119 1   
   118  113  120 1   
   119  114  115 1   
   120  114  116 2   
   121  115  121 1   
   122  115  122 1   
   123  123  124 1   
   124  123  135 1   
   125  124  125 1   
   126  124  127 1   
   127  124  136 1   
   128  125  126 2   
   129  125  144 1   
   130  127  128 1   
   131  127  137 1   
   132  127  138 1   
   133  128  129 ar  
   134  128  130 ar  
   135  129  131 ar  
   136  129  139 1   
   137  130  132 ar  
   138  130  140 1   
   139  131  133 ar  
   140  131  141 1   
   141  132  133 ar  
   142  132  142 1   
   143  133  134 1   
   144  134  143 1   
   145  144  145 1   
   146  144  153 1   
   147  145  146 1   
   148  145  148 1   
   149  145  154 1   
   150  146  147 2   
   151  146  159 1   
   152  148  149 1   
   153  148  155 1   
   154  148  156 1   
   155  149  150 1   
   156  149  157 1   
   157  149  158 1   
   158  150  151 1   
   159  150  152 1   
   160  159  160 1   
   161  159  168 1   
   162  160  161 1   
   163  160  163 1   
   164  160  169 1   
   165  161  162 2   
   166  161  174 1   
   167  163  164 1   
   168  163  170 1   
   169  163  171 1   
   170  164  165 1   
   171  164  172 1   
   172  164  173 1   
   173  165  166 1   
   174  165  167 1   
   175  174  175 1   
   176  174  179 1   
   177  175  176 1   
   178  175  177 1   
   179  175  178 1   
   180  181  182 1   
   181  181  183 1   
   182  184  185 1   
   183  184  186 1   
   184  187  188 1   
   185  187  189 1   
   186  190  191 1   
   187  190  192 1   
   188  193  194 1   
   189  193  195 1   
   190  196  197 1   
   191  196  198 1   
   192  199  200 1   
   193  199  201 1   
   194  202  203 1   
   195  202  204 1   
@<TRIPOS>SUBSTRUCTURE
     1 MOL         1 TEMP              0 ****  ****    0 ROOT
