@<TRIPOS>MOLECULE
MOL
  192   187     1     0     0
SMALL
resp


@<TRIPOS>ATOM
      1 C1          4.6380    4.6680   -3.1600 c3        1 MOL     -0.253323
      2 C2          5.4070    3.7920   -2.1540 c         1 MOL      0.895256
      3 O1          4.8570    3.5200   -1.0940 o         1 MOL     -0.715644
      4 H1          5.3220    5.3870   -3.6110 hc        1 MOL      0.061564
      5 H2          4.2090    4.0370   -3.9380 hc        1 MOL      0.061564
      6 H3          3.8410    5.2000   -2.6420 hc        1 MOL      0.061564
      7 N1          6.6270    3.2530   -2.5530 n         1 MOL     -0.792517
      8 C3          7.1960    1.9200   -2.1450 c3        1 MOL      0.310073
      9 C4          6.0660    0.9400   -1.8630 c         1 MOL     -0.078619
     10 O2          5.6710    0.6390   -0.7650 o         1 MOL     -0.203147
     11 C5          8.2120    2.0650   -1.0690 c3        1 MOL     -0.061435
     12 C6          7.8220    2.9030    0.1710 c         1 MOL      0.709527
     13 O3          6.9060    2.6130    0.9480 o         1 MOL     -0.726553
     14 O4          8.6720    3.8300    0.4410 o         1 MOL     -0.726553
     15 H4          7.1160    3.6230   -3.3550 hn        1 MOL      0.353552
     16 H5          7.8090    1.5880   -2.9900 h1        1 MOL      0.018356
     17 H6          9.1130    2.5620   -1.4280 hc        1 MOL      0.003880
     18 H7          8.5500    1.1100   -0.6800 hc        1 MOL      0.003880
     19 N2          5.4840    0.4280   -2.9500 n         1 MOL     -0.288461
     20 C7          4.7890   -0.8750   -3.0870 c3        1 MOL     -0.068768
     21 C8          5.6220   -2.1390   -2.6760 c         1 MOL      0.413921
     22 O5          5.4370   -3.1990   -3.2910 o         1 MOL     -0.545230
     23 C9          3.4290   -0.7560   -2.3700 c3        1 MOL      0.289807
     24 C10         2.5250   -2.0400   -2.6220 c3        1 MOL     -0.048394
     25 C11         2.7100    0.4750   -2.9000 c3        1 MOL     -0.345811
     26 C12         2.1420   -2.4170   -4.0720 c3        1 MOL     -0.137057
     27 H8          5.8130    0.8630   -3.8060 hn        1 MOL      0.266532
     28 H9          4.5390   -1.0000   -4.1350 h1        1 MOL      0.069149
     29 H10         3.6220   -0.6860   -1.3070 hc        1 MOL     -0.174253
     30 H11         1.6110   -1.9280   -2.0530 hc        1 MOL      0.038522
     31 H12         2.9610   -2.8670   -2.0660 hc        1 MOL      0.038522
     32 H13         2.9540    1.3470   -2.2930 hc        1 MOL      0.082632
     33 H14         2.8080    0.7920   -3.9360 hc        1 MOL      0.082632
     34 H15         1.6660    0.1810   -2.7510 hc        1 MOL      0.082632
     35 H16         1.5660   -1.6290   -4.5570 hc        1 MOL      0.030619
     36 H17         2.9770   -2.6600   -4.7270 hc        1 MOL      0.030619
     37 H18         1.4450   -3.2470   -4.0070 hc        1 MOL      0.030619
     38 N3          6.3610   -2.0950   -1.5760 n         1 MOL     -0.196465
     39 C13         7.2780   -3.1820   -1.1240 c3        1 MOL      0.045827
     40 C14         6.5560   -4.5180   -0.7360 c         1 MOL      0.750515
     41 O6          6.9740   -5.6140   -1.1470 o         1 MOL     -0.598053
     42 C15         7.9930   -2.7430    0.1200 c3        1 MOL     -0.472790
     43 C16         9.3130   -3.5480    0.2460 c         1 MOL      0.766472
     44 O7          9.9850   -3.8470   -0.7740 o         1 MOL     -0.726456
     45 O8          9.6960   -3.9540    1.3440 o         1 MOL     -0.726456
     46 H19         6.1990   -1.2690   -1.0270 hn        1 MOL      0.252488
     47 H20         7.9140   -3.4930   -1.9550 h1        1 MOL      0.049047
     48 H21         7.3660   -2.7100    1.0000 hc        1 MOL      0.099621
     49 H22         8.2660   -1.6990   -0.0640 hc        1 MOL      0.099621
     50 N4          5.3660   -4.5570   -0.1280 n         1 MOL     -0.651425
     51 C17         4.4790   -3.6460    0.5030 c3        1 MOL      0.344053
     52 C18         4.5640   -3.5510    2.0950 c         1 MOL      0.537936
     53 O9          5.5050   -4.1360    2.6250 o         1 MOL     -0.554865
     54 H23         5.0550   -5.4910    0.0820 hn        1 MOL      0.307330
     55 H24         3.4910   -4.1010    0.3790 h1        1 MOL     -0.041988
     56 H25         4.4340   -2.6250    0.1270 h1        1 MOL     -0.041988
     57 N5          3.6220   -3.0220    2.8770 n         1 MOL     -0.634877
     58 C19         2.3390   -2.4010    2.5960 c3        1 MOL      0.328897
     59 C20         2.3500   -1.2070    1.5830 c         1 MOL      0.286674
     60 O10         3.3560   -0.5920    1.3000 o         1 MOL     -0.501316
     61 C21         1.5940   -2.0430    3.8650 c3        1 MOL     -0.325767
     62 C22         2.4320   -1.2910    4.8490 c         1 MOL      0.845604
     63 O11         2.2000   -0.1070    5.0510 o         1 MOL     -0.733521
     64 O12         3.3120   -1.9470    5.4330 o         1 MOL     -0.733521
     65 H26         3.8940   -2.9220    3.8460 hn        1 MOL      0.358790
     66 H27         1.6980   -3.1600    2.1370 h1        1 MOL      0.030391
     67 H28         1.2740   -2.9860    4.3100 hc        1 MOL      0.053317
     68 H29         0.7050   -1.4580    3.6180 hc        1 MOL      0.053317
     69 N6          1.2160   -0.8510    0.9120 n         1 MOL     -0.134651
     70 C23        -0.1930   -1.2280    0.9850 c3        1 MOL     -0.419571
     71 C24        -0.5780   -2.6210    0.4520 c         1 MOL      0.674085
     72 O13         0.2270   -3.5190    0.2740 o         1 MOL     -0.552150
     73 H30         1.3870   -0.0570    0.3190 hn        1 MOL      0.275530
     74 H31        -0.7290   -0.5540    0.3300 h1        1 MOL      0.189785
     75 H32        -0.5670   -1.1040    2.0080 h1        1 MOL      0.189785
     76 N7         -1.8680   -2.8660    0.3070 n         1 MOL     -0.510639
     77 C25        -2.6000   -4.0850   -0.1720 c3        1 MOL      0.030234
     78 C26        -3.4980   -3.8670   -1.3610 c         1 MOL      0.418238
     79 O14        -3.8360   -4.7870   -2.0390 o         1 MOL     -0.526425
     80 C27        -3.2670   -4.7290    1.0060 c3        1 MOL      0.122708
     81 C28        -4.4050   -4.0040    1.7340 c3        1 MOL     -0.651449
     82 C29        -5.5720   -3.8010    0.8560 c         1 MOL      0.423592
     83 N8         -6.1580   -4.8480    0.3440 n         1 MOL     -0.647066
     84 O15        -5.9380   -2.6870    0.4980 o         1 MOL     -0.341448
     85 H33        -2.4330   -2.0530    0.5260 hn        1 MOL      0.273425
     86 H34        -1.9210   -4.8730   -0.5040 h1        1 MOL      0.127594
     87 H35        -2.5180   -4.8300    1.7880 hc        1 MOL      0.018994
     88 H36        -3.5560   -5.7320    0.6890 hc        1 MOL      0.018994
     89 H37        -4.0510   -3.0600    2.1640 hc        1 MOL      0.237794
     90 H38        -4.6920   -4.6440    2.5760 hc        1 MOL      0.237794
     91 H39        -5.8470   -5.7830    0.5550 hn        1 MOL      0.350071
     92 H40        -7.0090   -4.6470   -0.1670 hn        1 MOL      0.350071
     93 N9         -3.8150   -2.6110   -1.6470 n         1 MOL     -0.087412
     94 C30        -4.1680   -2.1370   -3.0010 c3        1 MOL     -0.061440
     95 C31        -5.6620   -1.5860   -3.1870 c         1 MOL      0.415844
     96 O16        -5.9810   -1.1760   -4.3150 o         1 MOL     -0.528086
     97 C32        -3.1310   -1.1470   -3.6000 c3        1 MOL      0.168044
     98 C33        -1.6760   -1.7020   -3.5460 c3        1 MOL     -0.119257
     99 C34        -3.2900    0.1650   -2.8200 c3        1 MOL     -0.119257
    100 H41        -3.6830   -1.8490   -0.9850 hn        1 MOL      0.108934
    101 H42        -4.3240   -2.9700   -3.6870 h1        1 MOL      0.075968
    102 H43        -3.4250   -0.9920   -4.6360 hc        1 MOL      0.009566
    103 H44        -1.0050   -1.0840   -4.1460 hc        1 MOL      0.018060
    104 H45        -1.3750   -1.7040   -2.4970 hc        1 MOL      0.018060
    105 H46        -1.6170   -2.6580   -4.0600 hc        1 MOL      0.018060
    106 H47        -2.8490    0.1120   -1.8170 hc        1 MOL      0.018060
    107 H48        -2.7360    0.8670   -3.4460 hc        1 MOL      0.018060
    108 H49        -4.3150    0.5330   -2.8150 hc        1 MOL      0.018060
    109 N10        -6.5100   -1.5470   -2.1030 n         1 MOL     -0.283726
    110 C35        -7.7660   -0.8030   -2.0760 c3        1 MOL      0.081388
    111 C36        -7.6560    0.6490   -1.5350 c         1 MOL      0.553916
    112 O17        -8.5900    1.3680   -1.7520 o         1 MOL     -0.552382
    113 C37        -8.6520   -1.6940   -1.2490 c3        1 MOL     -0.037102
    114 C38        -8.8180   -3.0900   -1.8660 c         1 MOL      0.636215
    115 N11        -9.2830   -3.1780   -3.1680 n         1 MOL     -0.838005
    116 O18        -8.5440   -4.1140   -1.2380 o         1 MOL     -0.549733
    117 H50        -6.2600   -2.0610   -1.2800 hn        1 MOL      0.136771
    118 H51        -8.1660   -0.7010   -3.0810 h1        1 MOL      0.026857
    119 H52        -9.6400   -1.2410   -1.2640 hc        1 MOL     -0.008157
    120 H53        -8.2610   -1.8540   -0.2450 hc        1 MOL     -0.008157
    121 H54        -9.2360   -2.3750   -3.7800 hn        1 MOL      0.377648
    122 H55        -9.2350   -4.1200   -3.5380 hn        1 MOL      0.377648
    123 N12        -6.5760    1.0060   -0.8190 n         1 MOL     -0.448227
    124 C39        -6.4150    2.2850   -0.1180 c3        1 MOL      0.319638
    125 C40        -4.9650    2.7070    0.2060 c         1 MOL      0.207319
    126 O19        -3.9940    1.9380    0.0850 o         1 MOL     -0.381480
    127 C41        -7.3020    2.1910    1.1600 c3        1 MOL     -0.149351
    128 C42        -7.2370    0.8730    1.9050 ca        1 MOL      0.300317
    129 C43        -8.4470    0.1650    2.0300 ca        1 MOL     -0.331037
    130 C44        -6.0400    0.3460    2.4640 ca        1 MOL     -0.331037
    131 C45        -8.4400   -1.1630    2.5680 ca        1 MOL     -0.127942
    132 C46        -6.0100   -0.9110    3.0250 ca        1 MOL     -0.127942
    133 C47        -7.1980   -1.6740    3.1010 ca        1 MOL      0.246610
    134 O20        -7.1020   -2.8060    3.8520 oh        1 MOL     -0.448037
    135 H56        -5.8510    0.3230   -0.6360 hn        1 MOL      0.251566
    136 H57        -6.7500    3.1230   -0.7440 h1        1 MOL      0.013944
    137 H58        -8.3030    2.2930    0.7360 hc        1 MOL      0.019948
    138 H59        -7.1060    2.9630    1.8940 hc        1 MOL      0.019948
    139 H60        -9.3260    0.4380    1.4690 ha        1 MOL      0.156893
    140 H61        -5.1480    0.9520    2.4170 ha        1 MOL      0.156893
    141 H62        -9.3260   -1.7630    2.6470 ha        1 MOL      0.110812
    142 H63        -5.1050   -1.2550    3.5060 ha        1 MOL      0.110812
    143 H64        -7.9310   -3.1450    4.1930 ho        1 MOL      0.332232
    144 N13        -4.8680    3.9010    0.7730 n         1 MOL     -0.357032
    145 C48        -3.6940    4.5480    1.3930 c3        1 MOL     -0.304473
    146 C49        -2.5320    4.9850    0.3740 c         1 MOL      0.723932
    147 O21        -2.0560    6.0850    0.5450 o         1 MOL     -0.558255
    148 C50        -3.1600    3.7240    2.5840 c3        1 MOL      0.333447
    149 C51        -4.1780    3.8020    3.7660 c3        1 MOL      0.037188
    150 C52        -3.5480    3.0500    4.9870 c         1 MOL      0.481661
    151 O22        -2.7280    3.7770    5.6540 o         1 MOL     -0.646633
    152 O23        -3.7520    1.8450    5.1920 o         1 MOL     -0.646633
    153 H65        -5.7230    4.4290    0.8540 hn        1 MOL      0.287270
    154 H66        -4.0270    5.4670    1.8780 h1        1 MOL      0.125910
    155 H67        -2.2000    4.1260    2.9010 hc        1 MOL     -0.029623
    156 H68        -2.8910    2.7070    2.3010 hc        1 MOL     -0.029623
    157 H69        -5.2010    3.5020    3.5350 hc        1 MOL     -0.065699
    158 H70        -4.1360    4.8650    3.9950 hc        1 MOL     -0.065699
    159 N14        -2.3440    4.3820   -0.7940 n         1 MOL     -0.627741
    160 C53        -1.0550    4.5390   -1.5070 c3        1 MOL     -0.004760
    161 C54        -1.1440    5.5240   -2.6650 c         1 MOL      0.605104
    162 O24        -0.1740    6.1000   -3.0870 o         1 MOL     -0.559381
    163 C55        -0.3490    3.1820   -1.9500 c3        1 MOL     -0.064835
    164 C56        -0.1010    2.2110   -0.7560 c3        1 MOL      0.416599
    165 C57         1.1560    2.5880    0.0460 c         1 MOL      0.555843
    166 O25         1.0690    3.6170    0.7590 o         1 MOL     -0.649379
    167 O26         2.1400    1.7950    0.1020 o         1 MOL     -0.649379
    168 H71        -2.7930    3.4800   -0.8450 hn        1 MOL      0.326536
    169 H72        -0.4020    5.0740   -0.8210 h1        1 MOL      0.121754
    170 H73         0.5690    3.3580   -2.5040 hc        1 MOL     -0.000585
    171 H74        -1.0150    2.6830   -2.6490 hc        1 MOL     -0.000585
    172 H75         0.0490    1.1670   -1.0400 hc        1 MOL     -0.175354
    173 H76        -1.0540    2.1980   -0.2480 hc        1 MOL     -0.175354
    174 N15        -2.3580    5.5150   -3.2590 n         1 MOL     -0.338969
    175 C58        -2.9610    6.4700   -4.1920 c3        1 MOL     -0.168808
    176 H77        -2.2010    7.1740   -4.5320 h1        1 MOL      0.079927
    177 H78        -3.3670    5.9340   -5.0490 h1        1 MOL      0.079927
    178 H79        -3.7610    7.0140   -3.6900 h1        1 MOL      0.079927
    179 H80        -3.0410    4.8650   -2.9230 hn        1 MOL      0.257761
    180 Ca1         4.4730    1.9740    1.2170 Ca        1 MOL      1.770610
    181 O27         6.5380    0.1860    2.2280 oh        1 MOL     -0.874826
    182 H81         7.0810   -0.1020    2.9580 ho        1 MOL      0.419127
    183 H82         6.9820   -0.1450    1.4510 ho        1 MOL      0.419127
    184 O28         5.6510    3.1540    3.5830 oh        1 MOL     -0.874826
    185 H83         6.4430    2.6160    3.6800 ho        1 MOL      0.419127
    186 H84         5.9150    4.0150    3.8930 ho        1 MOL      0.419127
    187 O29         3.3010    4.3080    1.6170 oh        1 MOL     -0.874826
    188 H85         2.4700    4.0430    1.2040 ho        1 MOL      0.419127
    189 H86         3.0780    5.0970    2.1070 ho        1 MOL      0.419127
    190 O30         3.0290    1.8090    3.5100 oh        1 MOL     -0.874826
    191 H87         2.7690    1.0590    4.0550 ho        1 MOL      0.419127
    192 H88         3.3000    2.4810    4.1360 ho        1 MOL      0.419127
@<TRIPOS>BOND
     1    1    2 1   
     2    1    4 1   
     3    1    5 1   
     4    1    6 1   
     5    2    3 2   
     6    2    7 1   
     7    7    8 1   
     8    7   15 1   
     9    8    9 1   
    10    8   11 1   
    11    8   16 1   
    12    9   10 2   
    13    9   19 1   
    14   11   12 1   
    15   11   17 1   
    16   11   18 1   
    17   12   13 1   
    18   12   14 1   
    19   19   20 1   
    20   19   27 1   
    21   20   21 1   
    22   20   23 1   
    23   20   28 1   
    24   21   22 2   
    25   21   38 1   
    26   23   24 1   
    27   23   25 1   
    28   23   29 1   
    29   24   26 1   
    30   24   30 1   
    31   24   31 1   
    32   25   32 1   
    33   25   33 1   
    34   25   34 1   
    35   26   35 1   
    36   26   36 1   
    37   26   37 1   
    38   38   39 1   
    39   38   46 1   
    40   39   40 1   
    41   39   42 1   
    42   39   47 1   
    43   40   41 2   
    44   40   50 1   
    45   42   43 1   
    46   42   48 1   
    47   42   49 1   
    48   43   44 1   
    49   43   45 1   
    50   50   51 1   
    51   50   54 1   
    52   51   52 1   
    53   51   55 1   
    54   51   56 1   
    55   52   53 2   
    56   52   57 1   
    57   57   58 1   
    58   57   65 1   
    59   58   59 1   
    60   58   61 1   
    61   58   66 1   
    62   59   60 2   
    63   59   69 1   
    64   61   62 1   
    65   61   67 1   
    66   61   68 1   
    67   62   63 1   
    68   62   64 1   
    69   69   70 1   
    70   69   73 1   
    71   70   71 1   
    72   70   74 1   
    73   70   75 1   
    74   71   72 2   
    75   71   76 1   
    76   76   77 1   
    77   76   85 1   
    78   77   78 1   
    79   77   80 1   
    80   77   86 1   
    81   78   79 2   
    82   78   93 1   
    83   80   81 1   
    84   80   87 1   
    85   80   88 1   
    86   81   82 1   
    87   81   89 1   
    88   81   90 1   
    89   82   83 1   
    90   82   84 2   
    91   83   91 1   
    92   83   92 1   
    93   93   94 1   
    94   93  100 1   
    95   94   95 1   
    96   94   97 1   
    97   94  101 1   
    98   95   96 2   
    99   95  109 1   
   100   97   98 1   
   101   97   99 1   
   102   97  102 1   
   103   98  103 1   
   104   98  104 1   
   105   98  105 1   
   106   99  106 1   
   107   99  107 1   
   108   99  108 1   
   109  109  110 1   
   110  109  117 1   
   111  110  111 1   
   112  110  113 1   
   113  110  118 1   
   114  111  112 2   
   115  111  123 1   
   116  113  114 1   
   117  113  119 1   
   118  113  120 1   
   119  114  115 1   
   120  114  116 2   
   121  115  121 1   
   122  115  122 1   
   123  123  124 1   
   124  123  135 1   
   125  124  125 1   
   126  124  127 1   
   127  124  136 1   
   128  125  126 2   
   129  125  144 1   
   130  127  128 1   
   131  127  137 1   
   132  127  138 1   
   133  128  129 ar  
   134  128  130 ar  
   135  129  131 ar  
   136  129  139 1   
   137  130  132 ar  
   138  130  140 1   
   139  131  133 ar  
   140  131  141 1   
   141  132  133 ar  
   142  132  142 1   
   143  133  134 1   
   144  134  143 1   
   145  144  145 1   
   146  144  153 1   
   147  145  146 1   
   148  145  148 1   
   149  145  154 1   
   150  146  147 2   
   151  146  159 1   
   152  148  149 1   
   153  148  155 1   
   154  148  156 1   
   155  149  150 1   
   156  149  157 1   
   157  149  158 1   
   158  150  151 1   
   159  150  152 1   
   160  159  160 1   
   161  159  168 1   
   162  160  161 1   
   163  160  163 1   
   164  160  169 1   
   165  161  162 2   
   166  161  174 1   
   167  163  164 1   
   168  163  170 1   
   169  163  171 1   
   170  164  165 1   
   171  164  172 1   
   172  164  173 1   
   173  165  166 1   
   174  165  167 1   
   175  174  175 1   
   176  174  179 1   
   177  175  176 1   
   178  175  177 1   
   179  175  178 1   
   180  181  182 1   
   181  181  183 1   
   182  184  185 1   
   183  184  186 1   
   184  187  188 1   
   185  187  189 1   
   186  190  191 1   
   187  190  192 1   
@<TRIPOS>SUBSTRUCTURE
     1 MOL         1 TEMP              0 ****  ****    0 ROOT
