@<TRIPOS>MOLECULE
MOL
  178   175     1     0     0
SMALL
resp


@<TRIPOS>ATOM
      1 C1          2.2620    6.4100   -1.3680 c3        1 MOL     -0.526272
      2 C2          3.6910    6.1100   -0.7620 c         1 MOL      0.631356
      3 O1          3.7650    6.3500    0.4420 o         1 MOL     -0.550936
      4 H1          1.5700    5.6200   -1.0740 hc        1 MOL      0.131333
      5 H2          1.9010    7.3670   -0.9910 hc        1 MOL      0.131333
      6 H3          2.3300    6.4490   -2.4550 hc        1 MOL      0.131333
      7 N1          4.7100    5.7030   -1.4830 n         1 MOL     -0.405663
      8 C3          5.9770    5.4180   -0.9360 c3        1 MOL     -0.109358
      9 C4          6.0530    4.0290   -0.2520 c         1 MOL      0.579334
     10 O2          6.1540    3.0150   -0.9330 o         1 MOL     -0.539549
     11 C5          7.1030    5.5470   -1.9610 c3        1 MOL      0.021971
     12 C6          8.5100    5.5350   -1.3310 c         1 MOL      0.695361
     13 O3          9.0460    4.4320   -1.3270 o         1 MOL     -0.731486
     14 O4          9.1100    6.5720   -1.1010 o         1 MOL     -0.731486
     15 H4          4.4510    5.2930   -2.3740 hn        1 MOL      0.270367
     16 H5          6.1570    6.1850   -0.1790 h1        1 MOL      0.076313
     17 H6          6.9810    6.4540   -2.5540 hc        1 MOL     -0.025595
     18 H7          7.0390    4.7430   -2.6960 hc        1 MOL     -0.025595
     19 N2          5.8510    3.9770    1.0470 n         1 MOL     -0.599424
     20 C7          5.8110    2.7910    1.8910 c3        1 MOL      0.597931
     21 C8          4.6380    2.8040    2.9430 c         1 MOL      0.418014
     22 O5          4.1880    3.9360    3.1080 o         1 MOL     -0.533600
     23 C9          7.1750    2.6910    2.6020 c3        1 MOL     -0.186184
     24 H8          5.5930    4.8440    1.4730 hn        1 MOL      0.299589
     25 H9          5.7910    1.9460    1.2090 h1        1 MOL     -0.022656
     26 H10         7.3680    3.6710    3.0320 hc        1 MOL      0.027598
     27 H11         7.0940    2.0910    3.5050 hc        1 MOL      0.027598
     28 H12         7.9420    2.4270    1.8770 hc        1 MOL      0.027598
     29 N3          4.1850    1.7150    3.5560 n         1 MOL     -0.428878
     30 C10         4.6910    0.3410    3.4490 c3        1 MOL     -0.017263
     31 C11         4.7510   -0.0450    1.9630 c         1 MOL      0.166774
     32 O6          3.9400    0.3810    1.1270 o         1 MOL     -0.437271
     33 C12         3.8680   -0.5850    4.3650 c3        1 MOL      0.018650
     34 C13         2.3500   -0.5020    4.3810 c         1 MOL      0.502825
     35 O7          1.7270   -0.0470    5.3940 o         1 MOL     -0.643575
     36 O8          1.7410   -0.7700    3.3100 o         1 MOL     -0.643575
     37 H13         3.3270    1.8110    4.0860 hn        1 MOL      0.343696
     38 H14         5.7410    0.3820    3.7250 h1        1 MOL      0.067078
     39 H15         4.2370   -0.4380    5.3760 hc        1 MOL      0.008397
     40 H16         4.1690   -1.6120    4.1450 hc        1 MOL      0.008397
     41 N4          5.7450   -0.8740    1.5840 n         1 MOL     -0.316694
     42 C14         5.9970   -1.4330    0.2600 c3        1 MOL      0.155498
     43 C15         7.4620   -1.3250   -0.2270 c         1 MOL      0.517893
     44 O9          8.2300   -0.4820    0.1580 o         1 MOL     -0.491398
     45 H17         6.4610   -1.1050    2.2640 hn        1 MOL      0.248174
     46 H18         5.4730   -0.8100   -0.4680 h1        1 MOL      0.059200
     47 H19         5.5970   -2.4490    0.1510 h1        1 MOL      0.059200
     48 N5          7.9230   -2.2060   -1.1420 n         1 MOL     -0.493907
     49 C16         7.1450   -3.4120   -1.5620 c3        1 MOL     -0.016204
     50 C17         5.7980   -3.2780   -2.3180 c         1 MOL      0.564391
     51 O10         5.6490   -2.3770   -3.1550 o         1 MOL     -0.508854
     52 C18         8.0880   -4.3860   -2.3720 c3        1 MOL     -0.353390
     53 C19         8.9300   -5.2210   -1.4510 c         1 MOL      0.706771
     54 N6          8.7320   -6.5010   -1.5050 n         1 MOL     -0.777552
     55 O11         9.7140   -4.6850   -0.7250 o         1 MOL     -0.560132
     56 H20         8.9100   -2.1530   -1.3320 hn        1 MOL      0.356207
     57 H21         6.9010   -3.9730   -0.6630 h1        1 MOL      0.041167
     58 H22         8.8040   -3.8770   -3.0060 hc        1 MOL      0.133054
     59 H23         7.4710   -5.1040   -2.9240 hc        1 MOL      0.133054
     60 H24         8.0390   -6.9340   -2.0970 hn        1 MOL      0.353619
     61 H25         8.9840   -6.9360   -0.6310 hn        1 MOL      0.353619
     62 N7          4.8410   -4.0820   -1.9370 n         1 MOL     -0.319139
     63 C20         3.5990   -4.1310   -2.6700 c3        1 MOL     -0.487807
     64 C21         2.4760   -4.9130   -1.9650 c         1 MOL      0.541529
     65 O12         2.3390   -6.1310   -2.0330 o         1 MOL     -0.551991
     66 H26         5.0300   -4.7870   -1.2370 hn        1 MOL      0.266621
     67 H27         3.8240   -4.5850   -3.6400 h1        1 MOL      0.210202
     68 H28         3.3340   -3.1260   -3.0150 h1        1 MOL      0.210202
     69 N8          1.5180   -4.2630   -1.2960 n         1 MOL     -0.096402
     70 C22         0.2200   -4.6930   -0.8720 c3        1 MOL     -0.510418
     71 C23        -0.7030   -3.4950   -1.0050 c         1 MOL      0.580666
     72 O13        -0.2150   -2.3910   -0.9180 o         1 MOL     -0.522315
     73 C24         0.1470   -5.1320    0.6120 c3        1 MOL      0.488448
     74 C25         1.1440   -6.2570    0.9490 c3        1 MOL     -0.375439
     75 O14         0.4140   -4.0320    1.5030 oh        1 MOL     -0.744443
     76 H29         1.6910   -3.2640   -1.2780 hn        1 MOL      0.187502
     77 H30        -0.1440   -5.4870   -1.5220 h1        1 MOL      0.193296
     78 H31        -0.8490   -5.5040    0.8510 h1        1 MOL      0.056139
     79 H32         0.3840   -4.4300    2.3670 ho        1 MOL      0.412585
     80 H33         0.7690   -7.2310    0.6370 hc        1 MOL      0.097568
     81 H34         2.1540   -6.0770    0.5760 hc        1 MOL      0.097568
     82 H35         1.1550   -6.4680    2.0150 hc        1 MOL      0.097568
     83 N9         -1.9420   -3.7950   -1.3270 n         1 MOL     -0.182171
     84 C26        -3.0980   -2.9470   -1.3180 c3        1 MOL     -0.076964
     85 C27        -3.8350   -3.1300   -0.0080 c         1 MOL      0.398176
     86 O15        -4.0870   -4.2450    0.3370 o         1 MOL     -0.519937
     87 C28        -4.1010   -3.1070   -2.5170 c3        1 MOL      0.150730
     88 C29        -5.1770   -1.9900   -2.6000 c3        1 MOL      0.212801
     89 C30        -3.2630   -3.0610   -3.8440 c3        1 MOL     -0.269869
     90 C31        -6.0950   -2.0720   -3.7770 c3        1 MOL     -0.277619
     91 H36        -2.0440   -4.7770   -1.4890 hn        1 MOL      0.198009
     92 H37        -2.6410   -1.9560   -1.3030 h1        1 MOL      0.012275
     93 H38        -4.6360   -4.0500   -2.5470 hc        1 MOL     -0.003642
     94 H39        -4.6900   -1.0200   -2.7000 hc        1 MOL     -0.024154
     95 H40        -5.7520   -2.0630   -1.6700 hc        1 MOL     -0.024154
     96 H41        -2.6020   -2.1920   -3.8720 hc        1 MOL      0.056578
     97 H42        -2.5700   -3.8890   -3.9470 hc        1 MOL      0.056578
     98 H43        -3.8440   -3.0010   -4.7530 hc        1 MOL      0.056578
     99 H44        -5.5600   -1.9780   -4.7200 hc        1 MOL      0.049791
    100 H45        -6.6140   -3.0300   -3.8000 hc        1 MOL      0.049791
    101 H46        -6.8480   -1.2850   -3.6840 hc        1 MOL      0.049791
    102 N10        -4.0850   -2.0110    0.6710 n         1 MOL     -0.357639
    103 C32        -4.8680   -1.9310    1.8800 c3        1 MOL      0.236317
    104 C33        -6.0170   -0.8850    1.8200 c         1 MOL      0.313073
    105 O16        -6.7430   -0.6680    2.8130 o         1 MOL     -0.539575
    106 C34        -4.0150   -1.6880    3.1010 c3        1 MOL     -0.004841
    107 C35        -2.7830   -2.6270    3.1540 c         1 MOL      0.678553
    108 O17        -2.9690   -3.8010    3.2960 o         1 MOL     -0.693940
    109 O18        -1.6400   -2.0710    3.1540 o         1 MOL     -0.693940
    110 H47        -3.6220   -1.1560    0.3840 hn        1 MOL      0.294699
    111 H48        -5.2950   -2.8960    2.1550 h1        1 MOL      0.051389
    112 H49        -4.6730   -1.7980    3.9620 hc        1 MOL     -0.021629
    113 H50        -3.6120   -0.6790    3.1610 hc        1 MOL     -0.021629
    114 N11        -6.1790   -0.1970    0.6950 n         1 MOL     -0.474018
    115 C36        -7.1780    0.8880    0.4830 c3        1 MOL      0.727387
    116 C37        -6.5450    2.2630    0.1090 c         1 MOL      0.116001
    117 O19        -7.0300    2.8470   -0.8380 o         1 MOL     -0.518770
    118 C38        -8.3000    0.3960   -0.4460 c3        1 MOL     -0.294788
    119 C39        -9.4870   -0.3560    0.1570 ca        1 MOL      0.300548
    120 C40       -10.0850   -1.3630   -0.5690 ca        1 MOL     -0.272589
    121 C41       -10.1670    0.0530    1.3390 ca        1 MOL     -0.272589
    122 C42       -11.2100   -2.0360   -0.1760 ca        1 MOL     -0.036922
    123 C43       -11.2660   -0.7160    1.8540 ca        1 MOL     -0.036922
    124 C44       -11.8130   -1.7250    1.0730 ca        1 MOL     -0.205959
    125 H51        -5.3490   -0.1700    0.1210 hn        1 MOL      0.150481
    126 H52        -7.7010    1.1010    1.4120 h1        1 MOL     -0.067464
    127 H53        -7.9830   -0.1610   -1.3230 hc        1 MOL      0.054231
    128 H54        -8.8600    1.2780   -0.7830 hc        1 MOL      0.054231
    129 H55        -9.6240   -1.6270   -1.5180 ha        1 MOL      0.128300
    130 H56        -9.9860    1.0250    1.7790 ha        1 MOL      0.128300
    131 H57       -11.7460   -2.6760   -0.8560 ha        1 MOL      0.088442
    132 H58       -11.7730   -0.3080    2.7220 ha        1 MOL      0.088442
    133 H59       -12.7390   -2.1840    1.3820 ha        1 MOL      0.110349
    134 N12        -5.6030    2.8100    0.8240 n         1 MOL      0.028222
    135 C45        -5.3300    4.2810    0.6480 c3        1 MOL     -0.024635
    136 C46        -4.5690    4.5460   -0.6730 c         1 MOL      0.375713
    137 O20        -4.5290    5.6330   -1.1310 o         1 MOL     -0.515067
    138 C47        -4.4530    4.6500    1.8890 c3        1 MOL     -0.234806
    139 C48        -3.7780    3.2830    2.2630 c3        1 MOL     -0.088266
    140 C49        -4.9650    2.4170    2.0400 c3        1 MOL     -0.062940
    141 H60        -6.3000    4.7730    0.6130 h1        1 MOL      0.100309
    142 H61        -3.5920    5.2850    1.6840 hc        1 MOL      0.097164
    143 H62        -4.9590    5.0580    2.7580 hc        1 MOL      0.097164
    144 H63        -3.0500    3.0810    1.4780 hc        1 MOL      0.061088
    145 H64        -3.4440    3.3060    3.2980 hc        1 MOL      0.061088
    146 H65        -4.8620    1.3350    2.0920 h1        1 MOL      0.056550
    147 H66        -5.6230    2.6760    2.8740 h1        1 MOL      0.056550
    148 N13        -3.9250    3.5400   -1.2020 n         1 MOL      0.025905
    149 C50        -3.1790    3.6330   -2.4870 c3        1 MOL     -0.261744
    150 C51        -4.1070    3.7650   -3.7400 c         1 MOL      0.566094
    151 O21        -3.9960    4.6610   -4.5310 o         1 MOL     -0.528808
    152 C52        -2.2900    2.3490   -2.5490 c3        1 MOL      0.058897
    153 C53        -1.6750    1.7110   -1.3320 c3        1 MOL     -0.200470
    154 C54        -2.5790    0.6580   -0.6240 c         1 MOL      0.740959
    155 O22        -2.0010   -0.1500    0.1570 o         1 MOL     -0.687431
    156 O23        -3.8550    0.6370   -0.7280 o         1 MOL     -0.687431
    157 H67        -4.1400    2.5760   -0.9880 hn        1 MOL      0.141587
    158 H68        -2.5820    4.5390   -2.4200 h1        1 MOL      0.113482
    159 H69        -1.5500    2.6280   -3.3030 hc        1 MOL     -0.002907
    160 H70        -2.7970    1.6050   -3.1550 hc        1 MOL     -0.002907
    161 H71        -1.5570    2.5150   -0.6120 hc        1 MOL      0.059869
    162 H72        -0.6800    1.3140   -1.5280 hc        1 MOL      0.059869
    163 N14        -5.1250    2.8660   -3.8220 n         1 MOL     -0.248550
    164 C55        -6.2200    2.9880   -4.7640 c3        1 MOL     -0.198193
    165 H73        -7.1190    2.5470   -4.3330 h1        1 MOL      0.087113
    166 H74        -6.3990    4.0410   -4.9780 h1        1 MOL      0.087113
    167 H75        -5.9660    2.4660   -5.6860 h1        1 MOL      0.087113
    168 H76        -5.0740    2.0230   -3.2750 hn        1 MOL      0.247390
    169 Ca1         0.0880   -1.1450    1.4330 Ca        1 MOL      1.636254
    170 O24         2.6580   -1.9530    0.3460 oh        1 MOL     -0.824222
    171 H77         3.3270   -1.2770    0.5030 ho        1 MOL      0.405179
    172 H78         3.0470   -2.7600    0.6810 ho        1 MOL      0.405179
    173 O25         1.4540    0.6740    0.0950 oh        1 MOL     -0.824222
    174 H79         2.3750    0.7960    0.3300 ho        1 MOL      0.405179
    175 H80         1.3260    1.2150   -0.6890 ho        1 MOL      0.405179
    176 O26        -0.6360    1.2540    2.2520 oh        1 MOL     -0.824222
    177 H81        -1.2950    1.4840    2.9120 ho        1 MOL      0.405179
    178 H82        -0.1290    2.0570    2.1310 ho        1 MOL      0.405179
@<TRIPOS>BOND
     1    1    2 1   
     2    1    4 1   
     3    1    5 1   
     4    1    6 1   
     5    2    3 2   
     6    2    7 1   
     7    7    8 1   
     8    7   15 1   
     9    8    9 1   
    10    8   11 1   
    11    8   16 1   
    12    9   10 2   
    13    9   19 1   
    14   11   12 1   
    15   11   17 1   
    16   11   18 1   
    17   12   13 1   
    18   12   14 1   
    19   19   20 1   
    20   19   24 1   
    21   20   21 1   
    22   20   23 1   
    23   20   25 1   
    24   21   22 2   
    25   21   29 1   
    26   23   26 1   
    27   23   27 1   
    28   23   28 1   
    29   29   30 1   
    30   29   37 1   
    31   30   31 1   
    32   30   33 1   
    33   30   38 1   
    34   31   32 2   
    35   31   41 1   
    36   33   34 1   
    37   33   39 1   
    38   33   40 1   
    39   34   35 1   
    40   34   36 1   
    41   41   42 1   
    42   41   45 1   
    43   42   43 1   
    44   42   46 1   
    45   42   47 1   
    46   43   44 2   
    47   43   48 1   
    48   48   49 1   
    49   48   56 1   
    50   49   50 1   
    51   49   52 1   
    52   49   57 1   
    53   50   51 2   
    54   50   62 1   
    55   52   53 1   
    56   52   58 1   
    57   52   59 1   
    58   53   54 1   
    59   53   55 2   
    60   54   60 1   
    61   54   61 1   
    62   62   63 1   
    63   62   66 1   
    64   63   64 1   
    65   63   67 1   
    66   63   68 1   
    67   64   65 2   
    68   64   69 1   
    69   69   70 1   
    70   69   76 1   
    71   70   71 1   
    72   70   73 1   
    73   70   77 1   
    74   71   72 2   
    75   71   83 1   
    76   73   74 1   
    77   73   75 1   
    78   73   78 1   
    79   74   80 1   
    80   74   81 1   
    81   74   82 1   
    82   75   79 1   
    83   83   84 1   
    84   83   91 1   
    85   84   85 1   
    86   84   87 1   
    87   84   92 1   
    88   85   86 2   
    89   85  102 1   
    90   87   88 1   
    91   87   89 1   
    92   87   93 1   
    93   88   90 1   
    94   88   94 1   
    95   88   95 1   
    96   89   96 1   
    97   89   97 1   
    98   89   98 1   
    99   90   99 1   
   100   90  100 1   
   101   90  101 1   
   102  102  103 1   
   103  102  110 1   
   104  103  104 1   
   105  103  106 1   
   106  103  111 1   
   107  104  105 2   
   108  104  114 1   
   109  106  107 1   
   110  106  112 1   
   111  106  113 1   
   112  107  108 1   
   113  107  109 1   
   114  114  115 1   
   115  114  125 1   
   116  115  116 1   
   117  115  118 1   
   118  115  126 1   
   119  116  117 2   
   120  116  134 1   
   121  118  119 1   
   122  118  127 1   
   123  118  128 1   
   124  119  120 ar  
   125  119  121 ar  
   126  120  122 ar  
   127  120  129 1   
   128  121  123 ar  
   129  121  130 1   
   130  122  124 ar  
   131  122  131 1   
   132  123  124 ar  
   133  123  132 1   
   134  124  133 1   
   135  134  135 1   
   136  134  140 1   
   137  135  136 1   
   138  135  138 1   
   139  135  141 1   
   140  136  137 2   
   141  136  148 1   
   142  138  139 1   
   143  138  142 1   
   144  138  143 1   
   145  139  140 1   
   146  139  144 1   
   147  139  145 1   
   148  140  146 1   
   149  140  147 1   
   150  148  149 1   
   151  148  157 1   
   152  149  150 1   
   153  149  152 1   
   154  149  158 1   
   155  150  151 2   
   156  150  163 1   
   157  152  153 1   
   158  152  159 1   
   159  152  160 1   
   160  153  154 1   
   161  153  161 1   
   162  153  162 1   
   163  154  155 1   
   164  154  156 1   
   165  163  164 1   
   166  163  168 1   
   167  164  165 1   
   168  164  166 1   
   169  164  167 1   
   170  170  171 1   
   171  170  172 1   
   172  173  174 1   
   173  173  175 1   
   174  176  177 1   
   175  176  178 1   
@<TRIPOS>SUBSTRUCTURE
     1 MOL         1 TEMP              0 ****  ****    0 ROOT
