@<TRIPOS>MOLECULE
MOL
  192   187     1     0     0
SMALL
resp


@<TRIPOS>ATOM
      1 C1         11.7050   -6.5980    1.7110 c3        1 MOL     -0.405003
      2 C2         11.5440   -5.2210    1.0270 c         1 MOL      0.579149
      3 O1         12.5830   -4.5320    0.8450 o         1 MOL     -0.561043
      4 H1         12.0290   -7.3350    0.9750 hc        1 MOL      0.115115
      5 H2         12.4490   -6.5260    2.5040 hc        1 MOL      0.115115
      6 H3         10.7500   -6.9070    2.1360 hc        1 MOL      0.115115
      7 N1         10.3780   -4.8180    0.5290 n         1 MOL     -0.174207
      8 C3         10.1630   -3.6000   -0.2560 c3        1 MOL     -0.398743
      9 C4          8.8960   -2.7590    0.1420 c         1 MOL      0.700496
     10 O2          7.9240   -3.3510    0.6470 o         1 MOL     -0.685704
     11 C5         10.1780   -3.9420   -1.7270 c3        1 MOL     -0.106224
     12 C6          9.1840   -4.9830   -2.1300 c         1 MOL      0.767587
     13 O3          9.2630   -5.4250   -3.2640 o         1 MOL     -0.722676
     14 O4          8.2170   -5.3300   -1.4320 o         1 MOL     -0.722676
     15 H4          9.5530   -5.3720    0.6890 hn        1 MOL      0.126499
     16 H5         11.0050   -2.9370   -0.0980 h1        1 MOL      0.135642
     17 H6         11.2100   -4.2120   -1.9320 hc        1 MOL      0.089965
     18 H7          9.9080   -2.9960   -2.1840 hc        1 MOL      0.089965
     19 N2          8.9070   -1.4320   -0.0490 n         1 MOL     -0.431108
     20 C7          7.8820   -0.4840    0.4630 c3        1 MOL     -0.098638
     21 C8          7.0320    0.0650   -0.6290 c         1 MOL      0.744715
     22 O5          7.5140    0.7990   -1.4370 o         1 MOL     -0.574168
     23 C9          8.5650    0.5920    1.3370 c3        1 MOL     -0.146545
     24 C10         7.5600    1.4260    2.1630 c3        1 MOL      0.094099
     25 C11         8.1820    2.3310    3.2170 c3        1 MOL     -0.011951
     26 C12         7.1720    3.3890    3.6280 c3        1 MOL      0.074839
     27 N3          7.8360    4.5130    4.4040 n4        1 MOL     -0.312228
     28 H8          9.7920   -1.0950   -0.3980 hn        1 MOL      0.317751
     29 H9          7.1510   -0.9190    1.1480 h1        1 MOL      0.121008
     30 H10         9.1240    1.2890    0.7140 hc        1 MOL      0.083218
     31 H11         9.3440    0.2320    2.0030 hc        1 MOL      0.083218
     32 H12         6.9000    0.7170    2.6630 hc        1 MOL     -0.009239
     33 H13         6.9850    2.0870    1.5010 hc        1 MOL     -0.009239
     34 H14         9.1140    2.7610    2.8290 hc        1 MOL      0.008548
     35 H15         8.4600    1.7380    4.0790 hc        1 MOL      0.008548
     36 H16         6.2730    3.0420    4.1290 hx        1 MOL      0.068316
     37 H17         6.8050    3.8540    2.7130 hx        1 MOL      0.068316
     38 H18         7.2140    5.2760    4.6170 hn        1 MOL      0.273652
     39 H19         8.3800    4.1380    5.1710 hn        1 MOL      0.273652
     40 H20         8.5410    4.9170    3.8050 hn        1 MOL      0.273652
     41 N4          5.7400   -0.1240   -0.5570 n         1 MOL     -0.561121
     42 C13         4.7610    0.1380   -1.5850 c3        1 MOL      0.272402
     43 C14         3.2830    0.0730   -1.0100 c         1 MOL      0.303260
     44 O6          3.0760   -0.6380   -0.0090 o         1 MOL     -0.448255
     45 C15         4.9170   -0.8690   -2.7370 c3        1 MOL     -0.332750
     46 C16         5.0300   -2.3700   -2.2870 c         1 MOL      0.738783
     47 O7          4.0540   -3.0290   -1.9340 o         1 MOL     -0.723002
     48 O8          6.2000   -2.7870   -2.0500 o         1 MOL     -0.723002
     49 H21         5.4420   -0.7510    0.1760 hn        1 MOL      0.188800
     50 H22         4.8620    1.1530   -1.9650 h1        1 MOL      0.054337
     51 H23         5.8600   -0.5850   -3.2040 hc        1 MOL      0.101448
     52 H24         4.1820   -0.6540   -3.5180 hc        1 MOL      0.101448
     53 N5          2.3220    0.7310   -1.6070 n         1 MOL     -0.307377
     54 C17         2.4380    1.5990   -2.7770 c3        1 MOL      0.034874
     55 C18         2.8850    3.0120   -2.3650 c         1 MOL      0.545298
     56 O9          3.0750    3.2590   -1.1540 o         1 MOL     -0.530220
     57 H25         1.4440    0.8110   -1.1120 hn        1 MOL      0.283626
     58 H26         1.4630    1.6440   -3.2590 h1        1 MOL      0.041868
     59 H27         3.1060    1.1860   -3.5290 h1        1 MOL      0.041868
     60 N6          3.0620    3.9300   -3.2930 n         1 MOL     -0.406985
     61 C19         3.6470    5.3160   -3.0870 c3        1 MOL      0.080965
     62 C20         3.0250    6.0620   -1.8960 c         1 MOL      0.500630
     63 O10         3.7010    6.7680   -1.1450 o         1 MOL     -0.515028
     64 C21         3.6180    6.0770   -4.3560 c3        1 MOL     -0.225490
     65 C22         4.5610    7.2960   -4.3060 c         1 MOL      0.691859
     66 O11         5.8230    7.0330   -4.3410 o         1 MOL     -0.637886
     67 O12         4.1410    8.4570   -4.2650 o         1 MOL     -0.637886
     68 H28         2.8220    3.7400   -4.2520 hn        1 MOL      0.253667
     69 H29         4.6950    5.2380   -2.8250 h1        1 MOL      0.053464
     70 H30         2.6010    6.4740   -4.3790 hc        1 MOL      0.033153
     71 H31         3.8880    5.3640   -5.1280 hc        1 MOL      0.033153
     72 N7          1.7890    5.7100   -1.5820 n         1 MOL     -0.165606
     73 C23         0.9320    6.2830   -0.5370 c3        1 MOL     -0.317768
     74 C24         0.8600    5.3660    0.7590 c         1 MOL      0.577368
     75 O13         0.3340    5.8890    1.7790 o         1 MOL     -0.565954
     76 H32         1.3400    4.9910   -2.1390 hn        1 MOL      0.174789
     77 H33        -0.0780    6.3000   -0.9360 h1        1 MOL      0.153880
     78 H34         1.4240    7.2070   -0.2420 h1        1 MOL      0.153880
     79 N8          1.3280    4.0870    0.7390 n         1 MOL     -0.344753
     80 C25         1.2320    3.1760    1.8170 c3        1 MOL      0.281125
     81 C26         0.4950    1.9540    1.3980 c         1 MOL      0.294589
     82 O14         0.4360    1.6720    0.2230 o         1 MOL     -0.410952
     83 C27         2.6210    2.8070    2.4720 c3        1 MOL      0.322616
     84 C28         3.3990    4.0110    2.9980 c3        1 MOL     -0.626813
     85 O15         2.3820    1.9490    3.6190 oh        1 MOL     -0.607685
     86 H35         1.7430    3.6800   -0.0880 hn        1 MOL      0.174617
     87 H36         0.7540    3.7080    2.6470 h1        1 MOL      0.014535
     88 H37         3.3050    2.2780    1.8200 h1        1 MOL     -0.000414
     89 H38         3.1010    1.3690    3.8550 ho        1 MOL      0.397070
     90 H39         3.7710    4.5640    2.1390 hc        1 MOL      0.171054
     91 H40         2.7670    4.6970    3.5650 hc        1 MOL      0.171054
     92 H41         4.1740    3.6910    3.6940 hc        1 MOL      0.171054
     93 N9          0.0560    1.0810    2.3320 n         1 MOL     -0.460170
     94 C29        -0.6510   -0.1770    2.0280 c3        1 MOL      0.198863
     95 C30        -1.9720   -0.0260    1.2290 c         1 MOL      0.306003
     96 O16        -2.2660   -0.6950    0.2030 o         1 MOL     -0.518678
     97 C31        -0.8130   -0.9910    3.3110 c3        1 MOL      0.047101
     98 C32         0.4270   -1.0490    4.2450 c3        1 MOL      0.072426
     99 C33        -1.4390   -2.3980    3.1060 c3        1 MOL     -0.292353
    100 C34         1.6860   -1.6160    3.6230 c3        1 MOL     -0.397956
    101 H42         0.4210    1.3030    3.2490 hn        1 MOL      0.255321
    102 H43        -0.0170   -0.7410    1.3480 h1        1 MOL      0.033140
    103 H44        -1.5500   -0.4660    3.9140 hc        1 MOL     -0.009597
    104 H45         0.1710   -1.7510    5.0430 hc        1 MOL      0.017181
    105 H46         0.6720   -0.1070    4.7300 hc        1 MOL      0.017181
    106 H47        -1.6470   -2.8050    4.0920 hc        1 MOL      0.096671
    107 H48        -2.4080   -2.3570    2.5960 hc        1 MOL      0.096671
    108 H49        -0.8250   -3.0780    2.5330 hc        1 MOL      0.096671
    109 H50         2.2120   -2.0800    4.4500 hc        1 MOL      0.094450
    110 H51         1.3590   -2.3030    2.8400 hc        1 MOL      0.094450
    111 H52         2.2120   -0.8330    3.0740 hc        1 MOL      0.094450
    112 N10        -2.7940    0.9310    1.5880 n         1 MOL     -0.087624
    113 C35        -4.0780    1.2450    0.8410 c3        1 MOL     -0.346467
    114 C36        -5.1390    1.8790    1.7860 c         1 MOL      0.701883
    115 O17        -4.7260    2.3130    2.8960 o         1 MOL     -0.528715
    116 C37        -3.7730    2.2470   -0.2670 c3        1 MOL      0.410901
    117 C38        -2.8740    3.3740    0.1590 c3        1 MOL     -0.201122
    118 O18        -2.9730    1.5420   -1.2110 oh        1 MOL     -0.650647
    119 H53        -2.6670    1.2950    2.5180 hn        1 MOL      0.195159
    120 H54        -4.5040    0.3750    0.3480 h1        1 MOL      0.156384
    121 H55        -4.6880    2.5560   -0.7590 h1        1 MOL      0.009494
    122 H56        -2.6030    0.7350   -0.8390 ho        1 MOL      0.406876
    123 H57        -3.4200    3.9000    0.9460 hc        1 MOL      0.043738
    124 H58        -1.8920    3.2020    0.6030 hc        1 MOL      0.043738
    125 H59        -2.7950    4.1090   -0.6330 hc        1 MOL      0.043738
    126 N11        -6.3910    1.8620    1.3730 n         1 MOL     -0.687897
    127 C39        -7.5460    2.3110    2.1310 c3        1 MOL      0.085791
    128 C40        -8.6250    1.2200    2.1860 c         1 MOL      0.632386
    129 O19        -9.3170    1.1220    3.1830 o         1 MOL     -0.549349
    130 C41        -8.2020    3.5800    1.5600 c3        1 MOL      0.279490
    131 C42        -9.5940    3.9170    2.0230 c3        1 MOL     -0.518052
    132 O20        -8.2740    3.4890    0.1490 oh        1 MOL     -0.594042
    133 H60        -6.5770    1.4330    0.4830 hn        1 MOL      0.362494
    134 H61        -7.2600    2.4790    3.1710 h1        1 MOL      0.078664
    135 H62        -7.5870    4.4450    1.8120 h1        1 MOL      0.039795
    136 H63        -7.8730    4.3410   -0.0290 ho        1 MOL      0.389370
    137 H64        -9.7160    4.1350    3.0850 hc        1 MOL      0.147394
    138 H65        -9.9790    4.6910    1.3520 hc        1 MOL      0.147394
    139 H66       -10.2670    3.0670    1.9170 hc        1 MOL      0.147394
    140 N12        -8.7250    0.4110    1.1070 n         1 MOL     -0.459287
    141 C43        -9.8520   -0.5060    0.9050 c3        1 MOL     -0.074118
    142 C44        -9.4870   -1.5680   -0.1240 c         1 MOL      0.635714
    143 O21        -8.7750   -1.3560   -1.1190 o         1 MOL     -0.545816
    144 C45       -11.1270    0.2640    0.5040 c3        1 MOL     -0.139992
    145 C46       -11.0700    0.9090   -0.8740 c3        1 MOL      0.076528
    146 C47       -12.4150    1.5450   -1.3230 c3        1 MOL     -0.213737
    147 C48       -12.2880    1.8350   -2.8390 c3        1 MOL      0.131081
    148 N13       -13.5510    2.3810   -3.5050 n4        1 MOL     -0.288339
    149 H67        -8.0430    0.5030    0.3650 hn        1 MOL      0.235545
    150 H68       -10.0500   -0.9560    1.8770 h1        1 MOL      0.115718
    151 H69       -11.4240    0.9650    1.2790 hc        1 MOL      0.074964
    152 H70       -11.9150   -0.4880    0.5040 hc        1 MOL      0.074964
    153 H71       -10.8200    0.0950   -1.5560 hc        1 MOL      0.029913
    154 H72       -10.3130    1.6800   -1.0450 hc        1 MOL      0.029913
    155 H73       -12.5270    2.4520   -0.7260 hc        1 MOL      0.071395
    156 H74       -13.2590    0.8680   -1.1860 hc        1 MOL      0.071395
    157 H75       -11.9340    0.9840   -3.4320 hx        1 MOL      0.062682
    158 H76       -11.4800    2.5480   -2.9960 hx        1 MOL      0.062682
    159 H77       -13.6700    3.2620   -3.0300 hn        1 MOL      0.253889
    160 H78       -13.4350    2.5420   -4.4980 hn        1 MOL      0.253889
    161 H79       -14.3340    1.8020   -3.2140 hn        1 MOL      0.253889
    162 N14       -10.1050   -2.7080    0.0370 n         1 MOL     -0.441976
    163 C49       -10.2650   -3.7620   -0.9320 c3        1 MOL      0.150600
    164 C50        -8.9440   -4.3430   -1.5160 c         1 MOL      0.410399
    165 O22        -8.8620   -4.5220   -2.6950 o         1 MOL     -0.529213
    166 C51       -11.1960   -4.8450   -0.3390 c3        1 MOL     -0.109840
    167 C52       -11.8620   -5.5900   -1.4480 c3        1 MOL     -0.382304
    168 C53       -13.0110   -6.4650   -0.8620 c         1 MOL      0.771477
    169 O23       -12.6660   -7.5360   -0.3330 o         1 MOL     -0.667854
    170 O24       -14.2070   -6.1470   -0.8710 o         1 MOL     -0.667854
    171 H80       -10.6610   -2.7380    0.8870 hn        1 MOL      0.236821
    172 H81       -10.7510   -3.3630   -1.8290 h1        1 MOL      0.064455
    173 H82       -11.9690   -4.3970    0.2820 hc        1 MOL      0.071947
    174 H83       -10.6260   -5.4080    0.3960 hc        1 MOL      0.071947
    175 H84       -11.1620   -6.2970   -1.8940 hc        1 MOL      0.099178
    176 H85       -12.1750   -4.8310   -2.1590 hc        1 MOL      0.099178
    177 N15        -7.8380   -4.5260   -0.7850 n         1 MOL     -0.289332
    178 C54        -7.5880   -4.4000    0.6330 c3        1 MOL     -0.001881
    179 H86        -8.1070   -3.5200    1.0160 h1        1 MOL      0.034837
    180 H87        -7.9530   -5.2880    1.1480 h1        1 MOL      0.034837
    181 H88        -6.5170   -4.2930    0.8060 h1        1 MOL      0.034837
    182 H89        -7.1230   -4.9050   -1.3850 hn        1 MOL      0.267182
    183 Ca1         5.7580   -4.6190   -0.2290 Ca        1 MOL      1.784337
    184 O25         5.2210   -5.8790   -2.4730 oh        1 MOL     -0.883077
    185 H90         4.6370   -5.6300   -3.1950 ho        1 MOL      0.435369
    186 H91         5.8510   -6.4720   -2.8710 ho        1 MOL      0.435369
    187 O26         4.8610   -2.4430    1.4380 oh        1 MOL     -0.883077
    188 H92         5.1810   -2.0850    2.2670 ho        1 MOL      0.435369
    189 H93         3.9280   -2.2230    1.4240 ho        1 MOL      0.435369
    190 O27         3.1610   -5.5410    0.3500 oh        1 MOL     -0.883077
    191 H94         2.5750   -4.8050    0.1720 ho        1 MOL      0.435369
    192 H95         2.7610   -6.2810   -0.0980 ho        1 MOL      0.435369
@<TRIPOS>BOND
     1    1    2 1   
     2    1    4 1   
     3    1    5 1   
     4    1    6 1   
     5    2    3 2   
     6    2    7 1   
     7    7    8 1   
     8    7   15 1   
     9    8    9 1   
    10    8   11 1   
    11    8   16 1   
    12    9   10 2   
    13    9   19 1   
    14   11   12 1   
    15   11   17 1   
    16   11   18 1   
    17   12   13 1   
    18   12   14 1   
    19   19   20 1   
    20   19   28 1   
    21   20   21 1   
    22   20   23 1   
    23   20   29 1   
    24   21   22 2   
    25   21   41 1   
    26   23   24 1   
    27   23   30 1   
    28   23   31 1   
    29   24   25 1   
    30   24   32 1   
    31   24   33 1   
    32   25   26 1   
    33   25   34 1   
    34   25   35 1   
    35   26   27 1   
    36   26   36 1   
    37   26   37 1   
    38   27   38 1   
    39   27   39 1   
    40   27   40 1   
    41   41   42 1   
    42   41   49 1   
    43   42   43 1   
    44   42   45 1   
    45   42   50 1   
    46   43   44 2   
    47   43   53 1   
    48   45   46 1   
    49   45   51 1   
    50   45   52 1   
    51   46   47 1   
    52   46   48 1   
    53   53   54 1   
    54   53   57 1   
    55   54   55 1   
    56   54   58 1   
    57   54   59 1   
    58   55   56 2   
    59   55   60 1   
    60   60   61 1   
    61   60   68 1   
    62   61   62 1   
    63   61   64 1   
    64   61   69 1   
    65   62   63 2   
    66   62   72 1   
    67   64   65 1   
    68   64   70 1   
    69   64   71 1   
    70   65   66 1   
    71   65   67 1   
    72   72   73 1   
    73   72   76 1   
    74   73   74 1   
    75   73   77 1   
    76   73   78 1   
    77   74   75 2   
    78   74   79 1   
    79   79   80 1   
    80   79   86 1   
    81   80   81 1   
    82   80   83 1   
    83   80   87 1   
    84   81   82 2   
    85   81   93 1   
    86   83   84 1   
    87   83   85 1   
    88   83   88 1   
    89   84   90 1   
    90   84   91 1   
    91   84   92 1   
    92   85   89 1   
    93   93   94 1   
    94   93  101 1   
    95   94   95 1   
    96   94   97 1   
    97   94  102 1   
    98   95   96 2   
    99   95  112 1   
   100   97   98 1   
   101   97   99 1   
   102   97  103 1   
   103   98  100 1   
   104   98  104 1   
   105   98  105 1   
   106   99  106 1   
   107   99  107 1   
   108   99  108 1   
   109  100  109 1   
   110  100  110 1   
   111  100  111 1   
   112  112  113 1   
   113  112  119 1   
   114  113  114 1   
   115  113  116 1   
   116  113  120 1   
   117  114  115 2   
   118  114  126 1   
   119  116  117 1   
   120  116  118 1   
   121  116  121 1   
   122  117  123 1   
   123  117  124 1   
   124  117  125 1   
   125  118  122 1   
   126  126  127 1   
   127  126  133 1   
   128  127  128 1   
   129  127  130 1   
   130  127  134 1   
   131  128  129 2   
   132  128  140 1   
   133  130  131 1   
   134  130  132 1   
   135  130  135 1   
   136  131  137 1   
   137  131  138 1   
   138  131  139 1   
   139  132  136 1   
   140  140  141 1   
   141  140  149 1   
   142  141  142 1   
   143  141  144 1   
   144  141  150 1   
   145  142  143 2   
   146  142  162 1   
   147  144  145 1   
   148  144  151 1   
   149  144  152 1   
   150  145  146 1   
   151  145  153 1   
   152  145  154 1   
   153  146  147 1   
   154  146  155 1   
   155  146  156 1   
   156  147  148 1   
   157  147  157 1   
   158  147  158 1   
   159  148  159 1   
   160  148  160 1   
   161  148  161 1   
   162  162  163 1   
   163  162  171 1   
   164  163  164 1   
   165  163  166 1   
   166  163  172 1   
   167  164  165 2   
   168  164  177 1   
   169  166  167 1   
   170  166  173 1   
   171  166  174 1   
   172  167  168 1   
   173  167  175 1   
   174  167  176 1   
   175  168  169 1   
   176  168  170 1   
   177  177  178 1   
   178  177  182 1   
   179  178  179 1   
   180  178  180 1   
   181  178  181 1   
   182  184  185 1   
   183  184  186 1   
   184  187  188 1   
   185  187  189 1   
   186  190  191 1   
   187  190  192 1   
@<TRIPOS>SUBSTRUCTURE
     1 MOL         1 TEMP              0 ****  ****    0 ROOT
