@<TRIPOS>MOLECULE
MOL
  195   189     1     0     0
SMALL
resp


@<TRIPOS>ATOM
      1 C1         10.9750    5.7760   -2.1250 c3        1 MOL     -0.464657
      2 C2         10.9680    4.5250   -1.1600 c         1 MOL      0.548358
      3 O1         11.9300    3.6770   -1.1490 o         1 MOL     -0.589650
      4 H1         11.4250    5.4960   -3.0780 hc        1 MOL      0.134395
      5 H2          9.9520    6.1130   -2.2920 hc        1 MOL      0.134395
      6 H3         11.5560    6.5810   -1.6740 hc        1 MOL      0.134395
      7 N1          9.8890    4.4440   -0.4340 n         1 MOL      0.041765
      8 C3          9.5800    3.3720    0.4860 c3        1 MOL     -0.391749
      9 C4          8.4610    2.4490    0.0050 c         1 MOL      0.502109
     10 O2          7.5490    2.8750   -0.6060 o         1 MOL     -0.558193
     11 C5          9.2220    3.9320    1.9340 c3        1 MOL     -0.018478
     12 C6          8.1960    5.0490    2.0230 c         1 MOL      0.626183
     13 O3          7.6270    5.5020    0.9540 o         1 MOL     -0.637302
     14 O4          7.9460    5.5800    3.1630 o         1 MOL     -0.637302
     15 H4          9.2770    5.2410   -0.5190 hn        1 MOL     -0.020502
     16 H5         10.5140    2.8370    0.6230 h1        1 MOL      0.143065
     17 H6         10.1210    4.4070    2.3310 hc        1 MOL      0.057129
     18 H7          8.9240    3.1360    2.6210 hc        1 MOL      0.057129
     19 N2          8.5400    1.1350    0.2400 n         1 MOL     -0.430584
     20 C7          7.7240    0.0930   -0.4480 c3        1 MOL      0.451631
     21 C8          6.4710   -0.3490    0.3150 c         1 MOL      0.141709
     22 O5          6.1320   -1.5430    0.4010 o         1 MOL     -0.406004
     23 C9          8.7040   -1.0390   -0.9040 c3        1 MOL     -0.200348
     24 C10         8.2140   -1.8820   -2.0770 c3        1 MOL     -0.013999
     25 C11         9.2400   -2.9980   -2.3550 c3        1 MOL      0.238037
     26 C12         8.7580   -3.9560   -3.3870 c3        1 MOL      0.021303
     27 N3          9.8260   -4.7200   -4.0210 n4        1 MOL     -0.349272
     28 H8          9.2810    0.7810    0.8320 hn        1 MOL      0.282103
     29 H9          7.3180    0.5110   -1.3720 h1        1 MOL     -0.050600
     30 H10         8.8750   -1.6840   -0.0400 hc        1 MOL      0.054444
     31 H11         9.6080   -0.6120   -1.3320 hc        1 MOL      0.054444
     32 H12         8.1220   -1.3380   -3.0170 hc        1 MOL     -0.003919
     33 H13         7.2980   -2.4290   -1.8540 hc        1 MOL     -0.003919
     34 H14         9.6770   -3.4700   -1.4750 hc        1 MOL     -0.038546
     35 H15        10.0820   -2.4710   -2.7980 hc        1 MOL     -0.038546
     36 H16         8.2080   -3.4400   -4.1760 hx        1 MOL      0.079910
     37 H17         7.9270   -4.5630   -3.0240 hx        1 MOL      0.079910
     38 H18         9.5400   -5.4490   -4.6600 hn        1 MOL      0.287534
     39 H19        10.4860   -4.1610   -4.5470 hn        1 MOL      0.287534
     40 H20        10.4200   -5.2210   -3.3670 hn        1 MOL      0.287534
     41 N4          5.7400    0.6340    0.8680 n         1 MOL     -0.017915
     42 C13         4.5550    0.4670    1.6930 c3        1 MOL     -0.229221
     43 C14         3.3130    0.3000    0.7990 c         1 MOL      0.525496
     44 O6          3.2040    1.0110   -0.1970 o         1 MOL     -0.588519
     45 C15         4.2690    1.5750    2.7270 c3        1 MOL     -0.218644
     46 C16         4.2420    2.9750    2.1360 c         1 MOL      0.764760
     47 O7          3.4090    3.7690    2.6670 o         1 MOL     -0.674020
     48 O8          5.1500    3.3620    1.3760 o         1 MOL     -0.674020
     49 H21         6.1250    1.5670    0.7530 hn        1 MOL      0.092630
     50 H22         4.6440   -0.4740    2.2430 h1        1 MOL      0.158457
     51 H23         4.9680    1.6060    3.5610 hc        1 MOL      0.096701
     52 H24         3.2830    1.4530    3.1830 hc        1 MOL      0.096701
     53 N5          2.3820   -0.5940    1.2310 n         1 MOL     -0.307442
     54 C17         2.3130   -1.4870    2.4020 c3        1 MOL     -0.117999
     55 C18         3.0570   -2.8720    2.2610 c         1 MOL      0.430796
     56 O9          3.5640   -3.2250    1.1870 o         1 MOL     -0.527121
     57 H25         1.6140   -0.7140    0.5830 hn        1 MOL      0.242304
     58 H26         1.2600   -1.5990    2.6570 h1        1 MOL      0.095272
     59 H27         2.7350   -1.0160    3.2910 h1        1 MOL      0.095272
     60 N6          3.1210   -3.7280    3.2810 n         1 MOL     -0.105864
     61 C19         3.6300   -5.0940    3.3060 c3        1 MOL     -0.279521
     62 C20         2.7350   -6.0180    2.4480 c         1 MOL      0.486742
     63 O10         3.1350   -7.0980    1.9990 o         1 MOL     -0.521799
     64 C21         3.6400   -5.6200    4.7910 c3        1 MOL      0.035737
     65 C22         4.4110   -4.7130    5.7950 c         1 MOL      0.686485
     66 O11         5.5440   -5.1200    6.1550 o         1 MOL     -0.658414
     67 O12         3.8120   -3.6920    6.1980 o         1 MOL     -0.658414
     68 H28         2.8560   -3.3260    4.1700 hn        1 MOL      0.129346
     69 H29         4.6060   -5.1990    2.8200 h1        1 MOL      0.158333
     70 H30         3.9800   -6.6350    4.9910 hc        1 MOL     -0.003755
     71 H31         2.6310   -5.6440    5.2110 hc        1 MOL     -0.003755
     72 N7          1.4630   -5.6190    2.2930 n         1 MOL     -0.270487
     73 C23         0.3670   -6.2560    1.5530 c3        1 MOL     -0.095574
     74 C24         0.2220   -5.7590    0.1030 c         1 MOL      0.487681
     75 O13        -0.3710   -6.4870   -0.6990 o         1 MOL     -0.575406
     76 H32         1.2660   -4.6770    2.6140 hn        1 MOL      0.195426
     77 H33        -0.5790   -5.9800    2.0140 h1        1 MOL      0.091719
     78 H34         0.5030   -7.3260    1.5750 h1        1 MOL      0.091719
     79 N8          0.7750   -4.6120   -0.2660 n         1 MOL     -0.098854
     80 C25         0.5770   -4.0090   -1.6480 c3        1 MOL     -0.223762
     81 C26         0.2790   -2.5520   -1.5400 c         1 MOL      0.315078
     82 O14         0.5860   -1.8600   -0.5600 o         1 MOL     -0.389638
     83 C27         1.7390   -4.2470   -2.5480 c3        1 MOL      0.396852
     84 C28         2.4990   -5.5700   -2.2580 c3        1 MOL     -0.430835
     85 O15         1.3940   -4.3160   -3.8820 oh        1 MOL     -0.651789
     86 H35         1.2460   -4.1010    0.4790 hn        1 MOL      0.130529
     87 H36        -0.3620   -4.3990   -2.0290 h1        1 MOL      0.124738
     88 H37         2.4200   -3.4100   -2.4710 h1        1 MOL      0.063412
     89 H38         1.0060   -5.1790   -3.9980 ho        1 MOL      0.404755
     90 H39         3.1170   -5.8080   -3.1280 hc        1 MOL      0.118979
     91 H40         3.1910   -5.4520   -1.4220 hc        1 MOL      0.118979
     92 H41         1.7900   -6.3860   -2.1420 hc        1 MOL      0.118979
     93 N9         -0.3170   -1.9040   -2.5030 n         1 MOL     -0.065423
     94 C29        -0.7980   -0.5270   -2.4120 c3        1 MOL     -0.407502
     95 C30        -2.0830   -0.3950   -1.6220 c         1 MOL      0.638947
     96 O16        -2.3220    0.6430   -1.0440 o         1 MOL     -0.532846
     97 C31        -1.1690   -0.0020   -3.8020 c3        1 MOL      0.233316
     98 C32         0.0440    0.1910   -4.8000 c3        1 MOL      0.109256
     99 C33        -1.8160    1.4270   -3.6800 c3        1 MOL     -0.262387
    100 C34        -0.4110   -0.0880   -6.2460 c3        1 MOL     -0.413313
    101 H42        -0.6100   -2.4260   -3.3220 hn        1 MOL      0.183462
    102 H43        -0.1020    0.1930   -1.9820 h1        1 MOL      0.187722
    103 H44        -1.8330   -0.6760   -4.3510 hc        1 MOL     -0.002196
    104 H45         0.8370   -0.4860   -4.5050 hc        1 MOL     -0.007331
    105 H46         0.5190    1.1640   -4.6740 hc        1 MOL     -0.007331
    106 H47        -2.9030    1.3900   -3.6770 hc        1 MOL      0.069679
    107 H48        -1.2600    1.9820   -2.9200 hc        1 MOL      0.069679
    108 H49        -1.6210    1.9870   -4.5970 hc        1 MOL      0.069679
    109 H50        -1.2870    0.5450   -6.3820 hc        1 MOL      0.099230
    110 H51         0.4410    0.0870   -6.9040 hc        1 MOL      0.099230
    111 H52        -0.6660   -1.1160   -6.5150 hc        1 MOL      0.099230
    112 N10        -2.8650   -1.4250   -1.4380 n         1 MOL     -0.422726
    113 C35        -4.0940   -1.5450   -0.5950 c3        1 MOL      0.001856
    114 C36        -5.1570   -2.3820   -1.2570 c         1 MOL      0.588283
    115 O17        -4.8370   -3.2430   -2.0300 o         1 MOL     -0.529223
    116 C37        -3.7300   -2.2840    0.7610 c3        1 MOL      0.342044
    117 C38        -2.8430   -3.6080    0.4960 c3        1 MOL     -0.289585
    118 O18        -2.9530   -1.4600    1.5250 oh        1 MOL     -0.562107
    119 H53        -2.6870   -2.2070   -2.0630 hn        1 MOL      0.226925
    120 H54        -4.4890   -0.5360   -0.4720 h1        1 MOL      0.066305
    121 H55        -4.6420   -2.4720    1.3180 h1        1 MOL     -0.034555
    122 H56        -2.9030   -1.9240    2.3570 ho        1 MOL      0.379677
    123 H57        -1.8080   -3.2750    0.5110 hc        1 MOL      0.071370
    124 H58        -3.1280   -4.3740    1.2250 hc        1 MOL      0.071370
    125 H59        -3.0850   -4.0150   -0.4950 hc        1 MOL      0.071370
    126 N11        -6.3970   -2.1060   -0.8990 n         1 MOL     -0.469789
    127 C39        -7.6100   -2.7610   -1.3730 c3        1 MOL     -0.021753
    128 C40        -8.8350   -1.8000   -1.4590 c         1 MOL      0.572193
    129 O19        -9.6390   -1.8850   -2.4000 o         1 MOL     -0.557749
    130 C41        -7.8750   -3.8960   -0.4160 c3        1 MOL      0.218657
    131 C42        -9.2390   -4.5260   -0.3440 c3        1 MOL     -0.161417
    132 O20        -7.6750   -3.6500    0.9250 oh        1 MOL     -0.631999
    133 H60        -6.6100   -1.4670   -0.1450 hn        1 MOL      0.282773
    134 H61        -7.4210   -3.0710   -2.3960 h1        1 MOL      0.116650
    135 H62        -7.2100   -4.7210   -0.6650 h1        1 MOL      0.043760
    136 H63        -7.8120   -4.4530    1.4390 ho        1 MOL      0.426947
    137 H64        -9.2390   -5.5380    0.0640 hc        1 MOL      0.040193
    138 H65        -9.9530   -4.0220    0.3150 hc        1 MOL      0.040193
    139 H66        -9.6160   -4.6600   -1.3580 hc        1 MOL      0.040193
    140 N12        -8.9680   -0.9960   -0.4880 n         1 MOL     -0.494453
    141 C43        -9.9550    0.1810   -0.4420 c3        1 MOL      0.102377
    142 C44        -9.4200    1.3010    0.4390 c         1 MOL      0.481124
    143 O21        -9.0760    0.9950    1.5750 o         1 MOL     -0.485734
    144 C45       -11.2820   -0.3890    0.0070 c3        1 MOL     -0.191099
    145 C46       -12.4790    0.5660   -0.2330 c3        1 MOL      0.073779
    146 C47       -13.7370   -0.0690    0.3750 c3        1 MOL     -0.016480
    147 C48       -14.9570    0.8910    0.1370 c3        1 MOL     -0.001337
    148 N13       -16.1210    0.3730    0.8510 n4        1 MOL     -0.114691
    149 H67        -8.3350   -1.0560    0.2990 hn        1 MOL      0.307062
    150 H68       -10.0800    0.5970   -1.4480 h1        1 MOL      0.058443
    151 H69       -11.1690   -0.6200    1.0620 hc        1 MOL      0.092964
    152 H70       -11.5670   -1.2510   -0.5970 hc        1 MOL      0.092964
    153 H71       -12.5900    0.6800   -1.3090 hc        1 MOL      0.018924
    154 H72       -12.2440    1.5550    0.1800 hc        1 MOL      0.018924
    155 H73       -13.6000   -0.2300    1.4430 hc        1 MOL      0.022183
    156 H74       -13.8560   -1.0230   -0.1270 hc        1 MOL      0.022183
    157 H75       -15.1140    1.0410   -0.9290 hx        1 MOL      0.071119
    158 H76       -14.6110    1.7930    0.6570 hx        1 MOL      0.071119
    159 H77       -16.3430   -0.5680    0.5620 hn        1 MOL      0.209554
    160 H78       -16.0000    0.4220    1.8540 hn        1 MOL      0.209554
    161 H79       -16.9520    0.9390    0.8180 hn        1 MOL      0.209554
    162 N14        -9.5940    2.5480    0.0680 n         1 MOL     -0.435488
    163 C49        -9.1900    3.6660    1.0170 c3        1 MOL      0.218410
    164 C50        -7.7160    3.6970    1.2800 c         1 MOL      0.291036
    165 O22        -7.2110    3.8150    2.3900 o         1 MOL     -0.484990
    166 C51        -9.7200    5.0540    0.6130 c3        1 MOL      0.053105
    167 C52        -9.2900    6.1740    1.6190 c3        1 MOL     -0.316600
    168 C53        -9.7520    7.5700    1.1720 c         1 MOL      0.795893
    169 O23       -10.6870    7.6130    0.4090 o         1 MOL     -0.670155
    170 O24        -9.2300    8.6130    1.5690 o         1 MOL     -0.670155
    171 H80       -10.2490    2.7480   -0.6710 hn        1 MOL      0.229174
    172 H81        -9.7050    3.4410    1.9610 h1        1 MOL      0.030659
    173 H82       -10.8020    5.0540    0.5200 hc        1 MOL     -0.002959
    174 H83        -9.2980    5.2640   -0.3730 hc        1 MOL     -0.002959
    175 H84        -8.1940    6.1980    1.5870 hc        1 MOL      0.083609
    176 H85        -9.6940    5.8860    2.5920 hc        1 MOL      0.083609
    177 N15        -6.8930    3.6970    0.1960 n         1 MOL     -0.305938
    178 C54        -7.2210    3.8240   -1.3000 c3        1 MOL     -0.060361
    179 H86        -6.8180    2.9620   -1.8330 h1        1 MOL      0.058584
    180 H87        -8.3010    3.8620   -1.4330 h1        1 MOL      0.058584
    181 H88        -6.7730    4.7360   -1.6950 h1        1 MOL      0.058584
    182 H89        -5.9310    3.9150    0.4070 hn        1 MOL      0.288421
    183 Ca1         5.7980    4.7580   -0.6320 Ca        1 MOL      1.797097
    184 O25         4.8450    2.4520   -1.5440 oh        1 MOL     -0.913046
    185 H90         5.3420    1.7060   -1.8900 ho        1 MOL      0.436684
    186 H91         4.1220    2.0420   -1.0630 ho        1 MOL      0.436684
    187 O26         3.1020    4.6470   -0.1610 oh        1 MOL     -0.913046
    188 H92         3.2630    4.5960    0.7870 ho        1 MOL      0.436684
    189 H93         2.3840    4.0260   -0.3150 ho        1 MOL      0.436684
    190 O27         4.6520    6.6260    0.8960 oh        1 MOL     -0.913046
    191 H94         4.5430    7.0200    1.7640 ho        1 MOL      0.436684
    192 H95         3.9360    6.9920    0.3690 ho        1 MOL      0.436684
    193 O28         6.7500    4.0550   -3.1110 oh        1 MOL     -0.913046
    194 H96         6.4240    3.1780   -3.3110 ho        1 MOL      0.436684
    195 H97         7.5390    4.1390   -3.6400 ho        1 MOL      0.436684
@<TRIPOS>BOND
     1    1    2 1   
     2    1    4 1   
     3    1    5 1   
     4    1    6 1   
     5    2    3 2   
     6    2    7 1   
     7    7    8 1   
     8    7   15 1   
     9    8    9 1   
    10    8   11 1   
    11    8   16 1   
    12    9   10 2   
    13    9   19 1   
    14   11   12 1   
    15   11   17 1   
    16   11   18 1   
    17   12   13 1   
    18   12   14 1   
    19   19   20 1   
    20   19   28 1   
    21   20   21 1   
    22   20   23 1   
    23   20   29 1   
    24   21   22 2   
    25   21   41 1   
    26   23   24 1   
    27   23   30 1   
    28   23   31 1   
    29   24   25 1   
    30   24   32 1   
    31   24   33 1   
    32   25   26 1   
    33   25   34 1   
    34   25   35 1   
    35   26   27 1   
    36   26   36 1   
    37   26   37 1   
    38   27   38 1   
    39   27   39 1   
    40   27   40 1   
    41   41   42 1   
    42   41   49 1   
    43   42   43 1   
    44   42   45 1   
    45   42   50 1   
    46   43   44 2   
    47   43   53 1   
    48   45   46 1   
    49   45   51 1   
    50   45   52 1   
    51   46   47 1   
    52   46   48 1   
    53   53   54 1   
    54   53   57 1   
    55   54   55 1   
    56   54   58 1   
    57   54   59 1   
    58   55   56 2   
    59   55   60 1   
    60   60   61 1   
    61   60   68 1   
    62   61   62 1   
    63   61   64 1   
    64   61   69 1   
    65   62   63 2   
    66   62   72 1   
    67   64   65 1   
    68   64   70 1   
    69   64   71 1   
    70   65   66 1   
    71   65   67 1   
    72   72   73 1   
    73   72   76 1   
    74   73   74 1   
    75   73   77 1   
    76   73   78 1   
    77   74   75 2   
    78   74   79 1   
    79   79   80 1   
    80   79   86 1   
    81   80   81 1   
    82   80   83 1   
    83   80   87 1   
    84   81   82 2   
    85   81   93 1   
    86   83   84 1   
    87   83   85 1   
    88   83   88 1   
    89   84   90 1   
    90   84   91 1   
    91   84   92 1   
    92   85   89 1   
    93   93   94 1   
    94   93  101 1   
    95   94   95 1   
    96   94   97 1   
    97   94  102 1   
    98   95   96 2   
    99   95  112 1   
   100   97   98 1   
   101   97   99 1   
   102   97  103 1   
   103   98  100 1   
   104   98  104 1   
   105   98  105 1   
   106   99  106 1   
   107   99  107 1   
   108   99  108 1   
   109  100  109 1   
   110  100  110 1   
   111  100  111 1   
   112  112  113 1   
   113  112  119 1   
   114  113  114 1   
   115  113  116 1   
   116  113  120 1   
   117  114  115 2   
   118  114  126 1   
   119  116  117 1   
   120  116  118 1   
   121  116  121 1   
   122  117  123 1   
   123  117  124 1   
   124  117  125 1   
   125  118  122 1   
   126  126  127 1   
   127  126  133 1   
   128  127  128 1   
   129  127  130 1   
   130  127  134 1   
   131  128  129 2   
   132  128  140 1   
   133  130  131 1   
   134  130  132 1   
   135  130  135 1   
   136  131  137 1   
   137  131  138 1   
   138  131  139 1   
   139  132  136 1   
   140  140  141 1   
   141  140  149 1   
   142  141  142 1   
   143  141  144 1   
   144  141  150 1   
   145  142  143 2   
   146  142  162 1   
   147  144  145 1   
   148  144  151 1   
   149  144  152 1   
   150  145  146 1   
   151  145  153 1   
   152  145  154 1   
   153  146  147 1   
   154  146  155 1   
   155  146  156 1   
   156  147  148 1   
   157  147  157 1   
   158  147  158 1   
   159  148  159 1   
   160  148  160 1   
   161  148  161 1   
   162  162  163 1   
   163  162  171 1   
   164  163  164 1   
   165  163  166 1   
   166  163  172 1   
   167  164  165 2   
   168  164  177 1   
   169  166  167 1   
   170  166  173 1   
   171  166  174 1   
   172  167  168 1   
   173  167  175 1   
   174  167  176 1   
   175  168  169 1   
   176  168  170 1   
   177  177  178 1   
   178  177  182 1   
   179  178  179 1   
   180  178  180 1   
   181  178  181 1   
   182  184  185 1   
   183  184  186 1   
   184  187  188 1   
   185  187  189 1   
   186  190  191 1   
   187  190  192 1   
   188  193  194 1   
   189  193  195 1   
@<TRIPOS>SUBSTRUCTURE
     1 MOL         1 TEMP              0 ****  ****    0 ROOT
