@<TRIPOS>MOLECULE
MOL
  178   175     1     0     0
SMALL
resp


@<TRIPOS>ATOM
      1 C1          0.5350    5.6990   -2.7970 c3        1 MOL     -0.352472
      2 C2          1.8860    5.3390   -2.1020 c         1 MOL      0.592312
      3 O1          2.0180    5.2150   -0.8640 o         1 MOL     -0.522211
      4 H1          0.1710    4.8330   -3.3500 hc        1 MOL      0.094945
      5 H2         -0.1970    5.9830   -2.0430 hc        1 MOL      0.094945
      6 H3          0.6910    6.5290   -3.4860 hc        1 MOL      0.094945
      7 N1          2.9460    5.1780   -2.8930 n         1 MOL     -0.541187
      8 C3          4.3210    5.1670   -2.3880 c3        1 MOL      0.253905
      9 C4          4.6360    3.9410   -1.4890 c         1 MOL      0.451300
     10 O2          4.2610    2.8390   -1.7810 o         1 MOL     -0.580892
     11 C5          5.3830    5.0750   -3.4560 c3        1 MOL     -0.178249
     12 C6          6.8070    5.3740   -3.0480 c         1 MOL      0.714048
     13 O3          7.7210    4.6090   -3.2010 o         1 MOL     -0.728086
     14 O4          6.9130    6.3920   -2.3070 o         1 MOL     -0.728086
     15 H4          2.7210    5.1510   -3.8750 hn        1 MOL      0.289307
     16 H5          4.4970    6.0440   -1.7800 h1        1 MOL      0.004632
     17 H6          5.2130    5.9160   -4.1340 hc        1 MOL      0.004124
     18 H7          5.3720    4.1410   -4.0370 hc        1 MOL      0.004124
     19 N2          5.3630    4.2200   -0.4380 n         1 MOL     -0.298935
     20 C7          5.3030    3.3780    0.7720 c3        1 MOL      0.294250
     21 C8          4.1600    3.8890    1.6740 c         1 MOL      0.539170
     22 O5          3.8040    5.0670    1.5790 o         1 MOL     -0.607717
     23 C9          6.6770    3.3810    1.4080 c3        1 MOL     -0.328127
     24 H8          5.7700    5.1320   -0.2740 hn        1 MOL      0.234757
     25 H9          4.9740    2.4050    0.4100 h1        1 MOL      0.067183
     26 H10         6.6650    2.5200    2.0730 hc        1 MOL      0.073894
     27 H11         7.4770    3.2170    0.6830 hc        1 MOL      0.073894
     28 H12         6.6410    4.3470    1.9130 hc        1 MOL      0.073894
     29 N3          3.5630    3.1910    2.5850 n         1 MOL     -0.418006
     30 C10         4.0080    1.9070    3.2470 c3        1 MOL     -0.025501
     31 C11         4.0730    0.6360    2.3410 c         1 MOL      0.251056
     32 O6          3.2260    0.4840    1.4220 o         1 MOL     -0.495412
     33 C12         3.3590    1.6180    4.6210 c3        1 MOL     -0.225125
     34 C13         1.8940    1.8330    4.5930 c         1 MOL      0.730362
     35 O7          1.1540    1.5570    3.5700 o         1 MOL     -0.707103
     36 O8          1.2960    2.3930    5.5710 o         1 MOL     -0.707103
     37 H13         2.9030    3.7650    3.1020 hn        1 MOL      0.329315
     38 H14         5.0620    2.0840    3.4790 h1        1 MOL      0.068721
     39 H15         3.7360    2.2860    5.4090 hc        1 MOL      0.057179
     40 H16         3.5010    0.5900    4.9660 hc        1 MOL      0.057179
     41 N4          4.9240   -0.3480    2.6530 n         1 MOL     -0.225963
     42 C14         5.1380   -1.5470    1.7840 c3        1 MOL      0.039406
     43 C15         6.3740   -1.3740    0.9320 c         1 MOL      0.614557
     44 O9          6.9910   -0.2530    0.9400 o         1 MOL     -0.557216
     45 H17         5.5050   -0.2300    3.4660 hn        1 MOL      0.239595
     46 H18         4.2820   -1.7250    1.1340 h1        1 MOL      0.077028
     47 H19         5.3010   -2.2930    2.5560 h1        1 MOL      0.077028
     48 N5          6.8830   -2.4120    0.2300 n         1 MOL     -0.617113
     49 C16         6.4080   -3.7750    0.1450 c3        1 MOL      0.121549
     50 C17         5.6340   -4.0610   -1.1720 c         1 MOL      0.454706
     51 O10         5.4330   -5.2030   -1.5660 o         1 MOL     -0.487374
     52 C18         7.5620   -4.6980    0.3820 c3        1 MOL     -0.244168
     53 C19         8.1490   -4.5000    1.8030 c         1 MOL      0.684636
     54 N6          9.3240   -4.9890    2.1220 n         1 MOL     -0.781915
     55 O11         7.6180   -3.8560    2.7370 o         1 MOL     -0.527390
     56 H20         7.7530   -2.1390   -0.2030 hn        1 MOL      0.316005
     57 H21         5.7010   -3.7840    0.9850 h1        1 MOL      0.041968
     58 H22         8.3040   -4.5700   -0.4140 hc        1 MOL      0.087071
     59 H23         7.2640   -5.7420    0.3460 hc        1 MOL      0.087071
     60 H24         9.8250   -5.6580    1.5510 hn        1 MOL      0.351125
     61 H25         9.6650   -4.8520    3.0680 hn        1 MOL      0.351125
     62 N7          5.2260   -3.0270   -1.9350 n         1 MOL     -0.228672
     63 C20         4.4400   -3.0810   -3.1440 c3        1 MOL     -0.257805
     64 C21         3.1160   -3.7560   -2.8960 c         1 MOL      0.579755
     65 O12         2.7580   -4.6410   -3.7250 o         1 MOL     -0.576079
     66 H26         5.4780   -2.0870   -1.6450 hn        1 MOL      0.246219
     67 H27         4.9790   -3.6680   -3.8940 h1        1 MOL      0.131544
     68 H28         4.2410   -2.0570   -3.4630 h1        1 MOL      0.131544
     69 N8          2.4560   -3.5160   -1.7980 n         1 MOL     -0.371791
     70 C22         1.3210   -4.3170   -1.3720 c3        1 MOL      0.075289
     71 C23         0.0180   -3.7000   -1.7330 c         1 MOL      0.476619
     72 O13        -0.0740   -2.5370   -1.9100 o         1 MOL     -0.561306
     73 C24         1.3710   -4.4480    0.1800 c3        1 MOL      0.349575
     74 C25         2.2580   -5.6150    0.6480 c3        1 MOL     -0.345905
     75 O14         1.8550   -3.3000    0.8920 oh        1 MOL     -0.646993
     76 H29         2.8320   -2.8030   -1.1770 hn        1 MOL      0.242179
     77 H30         1.3970   -5.2800   -1.8870 h1        1 MOL      0.075975
     78 H31         0.3680   -4.6980    0.5440 h1        1 MOL      0.035550
     79 H32         1.0620   -2.8010    1.0950 ho        1 MOL      0.408618
     80 H33         2.1210   -5.7520    1.7250 hc        1 MOL      0.073021
     81 H34         2.0160   -6.5420    0.1280 hc        1 MOL      0.073021
     82 H35         3.2880   -5.4540    0.3200 hc        1 MOL      0.073021
     83 N9         -1.0210   -4.4190   -1.7740 n         1 MOL     -0.454731
     84 C26        -2.3540   -3.8830   -1.5650 c3        1 MOL     -0.045688
     85 C27        -2.6530   -4.1930   -0.1240 c         1 MOL      0.326649
     86 O15        -2.6630   -5.3380    0.3050 o         1 MOL     -0.534293
     87 C28        -3.4460   -4.6260   -2.4460 c3        1 MOL      0.115100
     88 C29        -4.8440   -4.1650   -2.1180 c3        1 MOL      0.428308
     89 C30        -3.0570   -4.4610   -3.9670 c3        1 MOL     -0.450482
     90 C31        -5.9660   -4.7840   -2.8660 c3        1 MOL     -0.294917
     91 H36        -0.9860   -5.3930   -1.5120 hn        1 MOL      0.244854
     92 H37        -2.4330   -2.8090   -1.7240 h1        1 MOL      0.462856
     93 H38        -3.4470   -5.6910   -2.2070 hc        1 MOL      0.000548
     94 H39        -4.8450   -3.0790   -2.1960 hc        1 MOL     -0.126448
     95 H40        -5.1000   -4.2600   -1.0550 hc        1 MOL     -0.126448
     96 H41        -3.0670   -3.3810   -4.1260 hc        1 MOL      0.104423
     97 H42        -2.1120   -4.9250   -4.2320 hc        1 MOL      0.104423
     98 H43        -3.7550   -5.0930   -4.5110 hc        1 MOL      0.104423
     99 H44        -6.1200   -4.1580   -3.7470 hc        1 MOL      0.046866
    100 H45        -5.7220   -5.8270   -3.0590 hc        1 MOL      0.046866
    101 H46        -6.8530   -4.7010   -2.2430 hc        1 MOL      0.046866
    102 N10        -2.9800   -3.1130    0.6280 n         1 MOL     -0.157301
    103 C32        -3.1950   -3.0190    2.0490 c3        1 MOL     -0.085615
    104 C33        -4.1360   -1.9020    2.4830 c         1 MOL      0.575138
    105 O16        -4.3250   -1.8370    3.6640 o         1 MOL     -0.526904
    106 C34        -1.7640   -2.8620    2.7230 c3        1 MOL      0.060652
    107 C35        -0.9720   -1.5630    2.4140 c         1 MOL      0.705320
    108 O17        -1.3160   -0.3970    2.7940 o         1 MOL     -0.738665
    109 O18         0.1180   -1.5220    1.7230 o         1 MOL     -0.738665
    110 H47        -2.9420   -2.2420    0.1280 hn        1 MOL      0.018400
    111 H48        -3.5080   -4.0130    2.3860 h1        1 MOL      0.103070
    112 H49        -1.1620   -3.6430    2.2580 hc        1 MOL      0.001408
    113 H50        -1.7280   -3.1190    3.7750 hc        1 MOL      0.001408
    114 N11        -4.6650   -1.0780    1.5900 n         1 MOL     -0.608799
    115 C36        -5.7110   -0.1250    1.9610 c3        1 MOL      0.326420
    116 C37        -5.7870    1.0910    0.9600 c         1 MOL      0.362693
    117 O19        -6.6060    1.0690    0.0320 o         1 MOL     -0.469303
    118 C38        -7.0520   -0.8750    1.9380 c3        1 MOL     -0.357451
    119 C39        -8.2830   -0.1050    2.3040 ca        1 MOL      0.166972
    120 C40        -9.2640    0.1570    1.3280 ca        1 MOL     -0.204057
    121 C41        -8.4690    0.4060    3.5890 ca        1 MOL     -0.204057
    122 C42       -10.3800    0.8990    1.6780 ca        1 MOL     -0.055896
    123 C43        -9.6090    1.0870    4.0020 ca        1 MOL     -0.055896
    124 C44       -10.5770    1.3090    3.0240 ca        1 MOL     -0.196999
    125 H51        -4.2100   -0.9160    0.6990 hn        1 MOL      0.354416
    126 H52        -5.5650    0.3320    2.9450 h1        1 MOL      0.010356
    127 H53        -7.0240   -1.6770    2.6730 hc        1 MOL      0.124130
    128 H54        -7.1770   -1.2770    0.9390 hc        1 MOL      0.124130
    129 H55        -9.1750   -0.2400    0.3360 ha        1 MOL      0.125394
    130 H56        -7.6290    0.2760    4.2670 ha        1 MOL      0.125394
    131 H57       -11.2180    0.9510    0.9990 ha        1 MOL      0.090682
    132 H58        -9.7020    1.2780    5.0530 ha        1 MOL      0.090682
    133 H59       -11.4790    1.8200    3.3190 ha        1 MOL      0.103614
    134 N12        -4.8100    2.0540    0.9110 n         1 MOL     -0.134559
    135 C45        -5.0020    3.2350    0.0650 c3        1 MOL      0.092073
    136 C46        -4.9020    3.0000   -1.4330 c         1 MOL      0.171003
    137 O20        -5.4570    3.8450   -2.1620 o         1 MOL     -0.457990
    138 C47        -3.9770    4.2280    0.5800 c3        1 MOL     -0.161705
    139 C48        -3.8320    3.8210    2.0630 c3        1 MOL     -0.132909
    140 C49        -3.8270    2.3340    1.9300 c3        1 MOL     -0.097760
    141 H60        -6.0270    3.5910    0.2190 h1        1 MOL      0.079398
    142 H61        -2.9570    4.0870    0.2230 hc        1 MOL      0.094934
    143 H62        -4.3670    5.2270    0.3850 hc        1 MOL      0.094934
    144 H63        -2.9370    4.2260    2.5430 hc        1 MOL      0.056669
    145 H64        -4.6910    4.1590    2.6500 hc        1 MOL      0.056669
    146 H65        -2.8400    1.9120    1.7210 h1        1 MOL      0.120282
    147 H66        -4.0430    1.8380    2.8740 h1        1 MOL      0.120282
    148 N13        -4.2620    1.8940   -1.9000 n         1 MOL     -0.086106
    149 C50        -4.1840    1.3960   -3.3330 c3        1 MOL     -0.087885
    150 C51        -5.5960    1.2860   -3.9730 c         1 MOL      0.363480
    151 O21        -5.8870    1.7870   -5.0690 o         1 MOL     -0.529823
    152 C52        -3.6030   -0.0030   -3.4060 c3        1 MOL      0.219886
    153 C53        -2.0610    0.0540   -2.9020 c3        1 MOL     -0.365321
    154 C54        -1.9730    0.2020   -1.3700 c         1 MOL      0.659633
    155 O22        -1.2850    1.1360   -0.8730 o         1 MOL     -0.734979
    156 O23        -2.6660   -0.4540   -0.5680 o         1 MOL     -0.734979
    157 H67        -3.8880    1.2490   -1.2280 hn        1 MOL      0.266283
    158 H68        -3.5590    2.0520   -3.9420 h1        1 MOL      0.123991
    159 H69        -3.6340   -0.2990   -4.4480 hc        1 MOL     -0.070341
    160 H70        -4.1260   -0.6960   -2.7450 hc        1 MOL     -0.070341
    161 H71        -1.5600    0.8560   -3.4340 hc        1 MOL      0.097482
    162 H72        -1.6450   -0.9290   -3.1140 hc        1 MOL      0.097482
    163 N14        -6.5820    0.7670   -3.2200 n         1 MOL     -0.104499
    164 C55        -7.9840    0.5840   -3.6560 c3        1 MOL     -0.296076
    165 H73        -8.1270    1.0620   -4.6260 h1        1 MOL      0.112965
    166 H74        -8.2040   -0.4800   -3.7400 h1        1 MOL      0.112965
    167 H75        -8.6540    1.0380   -2.9260 h1        1 MOL      0.112965
    168 H76        -6.3800    0.5680   -2.2450 hn        1 MOL      0.187180
    169 Ca1         0.2460    0.9350    1.1570 Ca        1 MOL      1.806209
    170 O24        -0.5110    3.4220    1.6920 oh        1 MOL     -0.889837
    171 H77        -0.7610    3.6770    2.5790 ho        1 MOL      0.421306
    172 H78        -0.4690    4.2520    1.2090 ho        1 MOL      0.421306
    173 O25         1.1680   -0.3590   -1.0690 oh        1 MOL     -0.889837
    174 H79         0.7490   -1.1740   -1.3450 ho        1 MOL      0.421306
    175 H80         1.5140    0.0100   -1.8790 ho        1 MOL      0.421306
    176 O26         2.0250    2.6320   -0.0720 oh        1 MOL     -0.889837
    177 H81         1.9800    3.5760   -0.2110 ho        1 MOL      0.421306
    178 H82         2.7350    2.3430   -0.6530 ho        1 MOL      0.421306
@<TRIPOS>BOND
     1    1    2 1   
     2    1    4 1   
     3    1    5 1   
     4    1    6 1   
     5    2    3 2   
     6    2    7 1   
     7    7    8 1   
     8    7   15 1   
     9    8    9 1   
    10    8   11 1   
    11    8   16 1   
    12    9   10 2   
    13    9   19 1   
    14   11   12 1   
    15   11   17 1   
    16   11   18 1   
    17   12   13 1   
    18   12   14 1   
    19   19   20 1   
    20   19   24 1   
    21   20   21 1   
    22   20   23 1   
    23   20   25 1   
    24   21   22 2   
    25   21   29 1   
    26   23   26 1   
    27   23   27 1   
    28   23   28 1   
    29   29   30 1   
    30   29   37 1   
    31   30   31 1   
    32   30   33 1   
    33   30   38 1   
    34   31   32 2   
    35   31   41 1   
    36   33   34 1   
    37   33   39 1   
    38   33   40 1   
    39   34   35 1   
    40   34   36 1   
    41   41   42 1   
    42   41   45 1   
    43   42   43 1   
    44   42   46 1   
    45   42   47 1   
    46   43   44 2   
    47   43   48 1   
    48   48   49 1   
    49   48   56 1   
    50   49   50 1   
    51   49   52 1   
    52   49   57 1   
    53   50   51 2   
    54   50   62 1   
    55   52   53 1   
    56   52   58 1   
    57   52   59 1   
    58   53   54 1   
    59   53   55 2   
    60   54   60 1   
    61   54   61 1   
    62   62   63 1   
    63   62   66 1   
    64   63   64 1   
    65   63   67 1   
    66   63   68 1   
    67   64   65 2   
    68   64   69 1   
    69   69   70 1   
    70   69   76 1   
    71   70   71 1   
    72   70   73 1   
    73   70   77 1   
    74   71   72 2   
    75   71   83 1   
    76   73   74 1   
    77   73   75 1   
    78   73   78 1   
    79   74   80 1   
    80   74   81 1   
    81   74   82 1   
    82   75   79 1   
    83   83   84 1   
    84   83   91 1   
    85   84   85 1   
    86   84   87 1   
    87   84   92 1   
    88   85   86 2   
    89   85  102 1   
    90   87   88 1   
    91   87   89 1   
    92   87   93 1   
    93   88   90 1   
    94   88   94 1   
    95   88   95 1   
    96   89   96 1   
    97   89   97 1   
    98   89   98 1   
    99   90   99 1   
   100   90  100 1   
   101   90  101 1   
   102  102  103 1   
   103  102  110 1   
   104  103  104 1   
   105  103  106 1   
   106  103  111 1   
   107  104  105 2   
   108  104  114 1   
   109  106  107 1   
   110  106  112 1   
   111  106  113 1   
   112  107  108 1   
   113  107  109 1   
   114  114  115 1   
   115  114  125 1   
   116  115  116 1   
   117  115  118 1   
   118  115  126 1   
   119  116  117 2   
   120  116  134 1   
   121  118  119 1   
   122  118  127 1   
   123  118  128 1   
   124  119  120 ar  
   125  119  121 ar  
   126  120  122 ar  
   127  120  129 1   
   128  121  123 ar  
   129  121  130 1   
   130  122  124 ar  
   131  122  131 1   
   132  123  124 ar  
   133  123  132 1   
   134  124  133 1   
   135  134  135 1   
   136  134  140 1   
   137  135  136 1   
   138  135  138 1   
   139  135  141 1   
   140  136  137 2   
   141  136  148 1   
   142  138  139 1   
   143  138  142 1   
   144  138  143 1   
   145  139  140 1   
   146  139  144 1   
   147  139  145 1   
   148  140  146 1   
   149  140  147 1   
   150  148  149 1   
   151  148  157 1   
   152  149  150 1   
   153  149  152 1   
   154  149  158 1   
   155  150  151 2   
   156  150  163 1   
   157  152  153 1   
   158  152  159 1   
   159  152  160 1   
   160  153  154 1   
   161  153  161 1   
   162  153  162 1   
   163  154  155 1   
   164  154  156 1   
   165  163  164 1   
   166  163  168 1   
   167  164  165 1   
   168  164  166 1   
   169  164  167 1   
   170  170  171 1   
   171  170  172 1   
   172  173  174 1   
   173  173  175 1   
   174  176  177 1   
   175  176  178 1   
@<TRIPOS>SUBSTRUCTURE
     1 MOL         1 TEMP              0 ****  ****    0 ROOT
