@<TRIPOS>MOLECULE
MOL
  192   187     1     0     0
SMALL
resp


@<TRIPOS>ATOM
      1 C1          9.4880    1.2380    1.3150 c3        1 MOL     -0.403595
      2 C2          8.3190    0.4440    0.6490 c         1 MOL      0.663351
      3 O1          7.2960    0.2710    1.2750 o         1 MOL     -0.655297
      4 H1         10.2510    0.5390    1.6610 hc        1 MOL      0.106731
      5 H2          9.9270    1.9200    0.5860 hc        1 MOL      0.106731
      6 H3          9.1070    1.8070    2.1630 hc        1 MOL      0.106731
      7 N1          8.4600   -0.1260   -0.5420 n         1 MOL     -0.404962
      8 C3          7.4310   -0.5460   -1.5040 c3        1 MOL     -0.043445
      9 C4          6.9250   -1.9440   -1.1390 c         1 MOL      0.722764
     10 O2          6.6080   -2.7980   -2.0400 o         1 MOL     -0.505949
     11 C5          7.9240   -0.4520   -2.9400 c3        1 MOL     -0.115908
     12 C6          9.3160   -1.0130   -3.1210 c         1 MOL      0.629043
     13 O3         10.3290   -0.5380   -2.5170 o         1 MOL     -0.617385
     14 O4          9.4520   -2.0850   -3.7450 o         1 MOL     -0.617385
     15 H4          9.3810   -0.1520   -0.9400 hn        1 MOL      0.170494
     16 H5          6.6800    0.2400   -1.3720 h1        1 MOL      0.101554
     17 H6          7.9100    0.5910   -3.2500 hc        1 MOL      0.050091
     18 H7          7.2200   -0.9190   -3.6310 hc        1 MOL      0.050091
     19 N2          6.6740   -2.2440    0.1470 n         1 MOL     -0.588005
     20 C7          6.2410   -3.5130    0.7260 c3        1 MOL      0.015461
     21 C8          4.8330   -3.8450    0.2090 c         1 MOL      0.478382
     22 O5          4.5840   -5.0740   -0.0630 o         1 MOL     -0.550036
     23 C9          6.4900   -3.6150    2.2310 c3        1 MOL      0.088278
     24 C10         8.0400   -3.3910    2.6440 c3        1 MOL     -0.087316
     25 C11         8.4170   -3.8280    4.0490 c3        1 MOL     -0.100072
     26 C12         9.9890   -3.7190    4.0620 c3        1 MOL      0.100676
     27 N3         10.6660   -4.1900    5.3110 n4        1 MOL     -0.229283
     28 H8          6.7800   -1.4580    0.7670 hn        1 MOL      0.252268
     29 H9          6.8890   -4.2340    0.2290 h1        1 MOL      0.099723
     30 H10         6.1940   -4.6420    2.4590 hc        1 MOL      0.006367
     31 H11         5.8110   -2.9600    2.7830 hc        1 MOL      0.006367
     32 H12         8.3020   -2.3350    2.5990 hc        1 MOL      0.061042
     33 H13         8.5780   -3.9270    1.8620 hc        1 MOL      0.061042
     34 H14         7.9560   -4.8040    4.1230 hc        1 MOL      0.048092
     35 H15         8.0700   -3.2430    4.9050 hc        1 MOL      0.048092
     36 H16        10.2490   -2.6860    3.8440 hx        1 MOL      0.059779
     37 H17        10.4270   -4.2820    3.2420 hx        1 MOL      0.059779
     38 H18        11.6380   -4.3950    5.1580 hn        1 MOL      0.240542
     39 H19        10.6940   -3.3880    5.9270 hn        1 MOL      0.240542
     40 H20        10.1160   -4.9380    5.7070 hn        1 MOL      0.240542
     41 N4          3.8800   -2.9190    0.1910 n         1 MOL     -0.428474
     42 C13         3.9010   -1.5250    0.7910 c3        1 MOL      0.201351
     43 C14         3.9890   -0.3650   -0.2840 c         1 MOL      0.239404
     44 O6          4.0330   -0.6370   -1.5300 o         1 MOL     -0.447684
     45 C15         2.6560   -1.4240    1.7000 c3        1 MOL     -0.423791
     46 C16         1.2770   -1.7460    1.0740 c         1 MOL      0.954989
     47 O7          1.0150   -1.0410    0.1230 o         1 MOL     -0.746644
     48 O8          0.5250   -2.5880    1.6110 o         1 MOL     -0.746644
     49 H21         3.0310   -3.1350   -0.3090 hn        1 MOL      0.361429
     50 H22         4.7380   -1.2400    1.4270 h1        1 MOL      0.111340
     51 H23         2.5480   -0.3910    2.0290 hc        1 MOL      0.065125
     52 H24         2.7770   -2.0880    2.5670 hc        1 MOL      0.065125
     53 N5          4.1040    0.9310    0.0940 n         1 MOL     -0.200451
     54 C17         4.2130    2.0840   -0.8320 c3        1 MOL     -0.090616
     55 C18         2.8590    2.6690   -1.2030 c         1 MOL      0.786742
     56 O9          1.8080    2.0930   -0.9540 o         1 MOL     -0.619841
     57 H25         4.0600    1.0990    1.0860 hn        1 MOL      0.237085
     58 H26         4.7010    1.7250   -1.7420 h1        1 MOL      0.071995
     59 H27         4.7390    2.8500   -0.2760 h1        1 MOL      0.071995
     60 N6          2.9050    3.8590   -1.8030 n         1 MOL     -0.775714
     61 C19         1.7440    4.6190   -2.4120 c3        1 MOL      0.394119
     62 C20         1.9670    6.1870   -2.3410 c         1 MOL      0.529302
     63 O10         3.0440    6.6390   -1.9430 o         1 MOL     -0.525671
     64 C21         1.6370    4.1430   -3.8940 c3        1 MOL     -0.598532
     65 C22         1.2960    2.6350   -4.0410 c         1 MOL      0.801324
     66 O11         2.0720    1.7980   -4.5080 o         1 MOL     -0.678784
     67 O12         0.2580    2.1930   -3.5730 o         1 MOL     -0.678784
     68 H28         3.7900    4.2730   -2.0410 hn        1 MOL      0.362434
     69 H29         0.8560    4.3300   -1.8490 h1        1 MOL      0.041529
     70 H30         2.6340    4.2040   -4.3340 hc        1 MOL      0.149386
     71 H31         0.8930    4.7450   -4.4200 hc        1 MOL      0.149386
     72 N7          0.9220    6.9600   -2.6180 n         1 MOL     -0.559333
     73 C23        -0.5330    6.6460   -2.7000 c3        1 MOL      0.074211
     74 C24        -1.0530    6.3070   -1.2890 c         1 MOL      0.476653
     75 O13        -0.3620    6.5470   -0.3230 o         1 MOL     -0.465893
     76 H32         0.9590    7.9310   -2.3180 hn        1 MOL      0.329241
     77 H33        -0.6030    5.8010   -3.3990 h1        1 MOL      0.050878
     78 H34        -1.0730    7.4940   -3.1250 h1        1 MOL      0.050878
     79 N8         -2.2030    5.6150   -1.2130 n         1 MOL     -0.459665
     80 C25        -2.7990    4.8310   -0.1370 c3        1 MOL     -0.137508
     81 C26        -1.7710    3.8460    0.4610 c         1 MOL      1.073685
     82 O14        -1.2140    3.0860   -0.3750 o         1 MOL     -0.802007
     83 C27        -4.0920    4.0370   -0.6060 c3        1 MOL      0.387814
     84 C28        -5.3160    4.9520   -0.5590 c3        1 MOL     -0.289687
     85 O15        -4.3370    3.0020    0.2660 oh        1 MOL     -0.679130
     86 H35        -2.6950    5.5700   -2.0970 hn        1 MOL      0.256424
     87 H36        -3.0890    5.5130    0.6680 h1        1 MOL      0.063836
     88 H37        -3.9090    3.7000   -1.6270 h1        1 MOL      0.029904
     89 H38        -5.2630    3.1130    0.5120 ho        1 MOL      0.416776
     90 H39        -5.1270    6.0070   -0.7780 hc        1 MOL      0.079698
     91 H40        -6.0400    4.6280   -1.3060 hc        1 MOL      0.079698
     92 H41        -5.7540    4.9390    0.4490 hc        1 MOL      0.079698
     93 N9         -1.5540    3.9080    1.8170 n         1 MOL     -0.883112
     94 C29        -0.7640    2.9520    2.6410 c3        1 MOL      0.438278
     95 C30        -1.3200    1.5350    2.3480 c         1 MOL      0.313791
     96 O16        -0.8190    0.8540    1.3630 o         1 MOL     -0.538401
     97 C31         0.7840    3.1180    2.5430 c3        1 MOL     -0.032102
     98 C32         1.2790    4.5900    2.7260 c3        1 MOL     -0.082210
     99 C33         1.5150    2.2800    3.6350 c3        1 MOL     -0.352628
    100 C34         1.0520    5.3180    4.0130 c3        1 MOL     -0.238980
    101 H42        -2.0080    4.5870    2.4010 hn        1 MOL      0.369158
    102 H43        -1.0740    3.1520    3.6620 h1        1 MOL     -0.007621
    103 H44         1.1980    2.6680    1.6380 hc        1 MOL      0.024729
    104 H45         0.8590    5.2190    1.9440 hc        1 MOL      0.078676
    105 H46         2.3440    4.7460    2.5590 hc        1 MOL      0.078676
    106 H47         1.2240    2.5250    4.6470 hc        1 MOL      0.100559
    107 H48         1.4880    1.2110    3.4280 hc        1 MOL      0.100559
    108 H49         2.5750    2.5450    3.6860 hc        1 MOL      0.100559
    109 H50        -0.0090    5.4710    4.2340 hc        1 MOL      0.062499
    110 H51         1.5020    4.7510    4.8280 hc        1 MOL      0.062499
    111 H52         1.5710    6.2760    4.0110 hc        1 MOL      0.062499
    112 N10        -2.4180    1.1120    2.9400 n         1 MOL     -0.268231
    113 C35        -2.8320   -0.2820    3.0370 c3        1 MOL      0.006283
    114 C36        -4.3460   -0.5280    3.0370 c         1 MOL      0.540057
    115 O17        -4.7670   -1.6710    3.2400 o         1 MOL     -0.553817
    116 C37        -2.0500   -1.0810    4.2340 c3        1 MOL      0.355723
    117 C38        -2.1850   -0.3030    5.5260 c3        1 MOL     -0.236036
    118 O18        -0.6680   -1.0500    3.9320 oh        1 MOL     -0.563775
    119 H53        -2.8010    1.7260    3.6340 hn        1 MOL      0.215518
    120 H54        -2.4450   -0.7940    2.1590 h1        1 MOL      0.051738
    121 H55        -2.4820   -2.0770    4.2730 h1        1 MOL      0.015154
    122 H56        -0.5590   -1.5020    3.0880 ho        1 MOL      0.384941
    123 H57        -1.6310    0.6410    5.4620 hc        1 MOL      0.050427
    124 H58        -3.2160   -0.0800    5.8030 hc        1 MOL      0.050427
    125 H59        -1.6130   -0.9370    6.1960 hc        1 MOL      0.050427
    126 N11        -5.1810    0.5000    2.7470 n         1 MOL     -0.422379
    127 C39        -6.6400    0.3830    2.5480 c3        1 MOL     -0.016949
    128 C40        -6.8700   -0.3620    1.2170 c         1 MOL      0.627027
    129 O19        -7.4990    0.1940    0.3160 o         1 MOL     -0.512582
    130 C41        -7.3250    1.7390    2.6650 c3        1 MOL      0.240109
    131 C42        -7.2720    2.1960    4.1560 c3        1 MOL     -0.184527
    132 O20        -6.7330    2.7700    1.8560 oh        1 MOL     -0.648206
    133 H60        -4.7810    1.3500    2.3800 hn        1 MOL      0.303117
    134 H61        -7.1250   -0.2020    3.3320 h1        1 MOL      0.087464
    135 H62        -8.3820    1.6710    2.4040 h1        1 MOL      0.043913
    136 H63        -7.3320    3.5240    1.8630 ho        1 MOL      0.419951
    137 H64        -6.2780    2.4670    4.5330 hc        1 MOL      0.051406
    138 H65        -7.8580    3.0940    4.3180 hc        1 MOL      0.051406
    139 H66        -7.8080    1.4890    4.7970 hc        1 MOL      0.051406
    140 N12        -6.6290   -1.7520    1.2890 n         1 MOL     -0.796930
    141 C43        -6.4610   -2.7330    0.1980 c3        1 MOL      0.466314
    142 C44        -5.1750   -2.3720   -0.6270 c         1 MOL      0.352143
    143 O21        -4.7130   -1.2510   -0.5860 o         1 MOL     -0.437698
    144 C45        -7.7680   -2.9860   -0.6060 c3        1 MOL     -0.495516
    145 C46        -9.0170   -3.1470    0.2510 c3        1 MOL     -0.127044
    146 C47       -10.0820   -3.6810   -0.7180 c3        1 MOL      0.186389
    147 C48       -11.5160   -3.3540   -0.2390 c3        1 MOL      0.078580
    148 N13       -12.5550   -3.7320   -1.2750 n4        1 MOL     -0.254622
    149 H67        -6.1500   -2.0420    2.1270 hn        1 MOL      0.374362
    150 H68        -6.3590   -3.6890    0.7040 h1        1 MOL      0.017040
    151 H69        -7.6060   -3.8980   -1.1870 hc        1 MOL      0.148491
    152 H70        -7.9960   -2.1420   -1.2530 hc        1 MOL      0.148491
    153 H71        -9.1820   -2.1580    0.6560 hc        1 MOL      0.084104
    154 H72        -8.7750   -3.8460    1.0520 hc        1 MOL      0.084104
    155 H73       -10.0250   -4.7770   -0.7540 hc        1 MOL     -0.014347
    156 H74        -9.9800   -3.3140   -1.7400 hc        1 MOL     -0.014347
    157 H75       -11.5850   -2.2730   -0.0620 hx        1 MOL      0.039608
    158 H76       -11.7710   -3.8040    0.7170 hx        1 MOL      0.039608
    159 H77       -12.5790   -4.7350   -1.4180 hn        1 MOL      0.241877
    160 H78       -13.4320   -3.5410   -0.8220 hn        1 MOL      0.241877
    161 H79       -12.5210   -3.1960   -2.1230 hn        1 MOL      0.241877
    162 N14        -4.5800   -3.3290   -1.2910 n         1 MOL     -0.579333
    163 C49        -3.2690   -3.2330   -1.9730 c3        1 MOL      0.357242
    164 C50        -2.0490   -2.8040   -1.1130 c         1 MOL      0.290626
    165 O22        -1.3510   -1.8750   -1.4760 o         1 MOL     -0.551539
    166 C51        -3.0120   -4.6350   -2.6910 c3        1 MOL      0.063107
    167 C52        -4.0580   -4.8320   -3.7520 c3        1 MOL     -0.086845
    168 C53        -3.8340   -6.1400   -4.5230 c         1 MOL      0.652914
    169 O23        -3.4080   -5.9750   -5.6710 o         1 MOL     -0.637743
    170 O24        -4.1610   -7.2610   -3.9830 o         1 MOL     -0.637743
    171 H80        -5.1270   -4.1700   -1.3370 hn        1 MOL      0.330495
    172 H81        -3.3490   -2.5340   -2.8110 h1        1 MOL      0.045482
    173 H82        -3.1440   -5.4010   -1.9360 hc        1 MOL     -0.003678
    174 H83        -2.0180   -4.5400   -3.1250 hc        1 MOL     -0.003678
    175 H84        -4.0240   -4.0030   -4.4540 hc        1 MOL     -0.026510
    176 H85        -5.0590   -4.8400   -3.3160 hc        1 MOL     -0.026510
    177 N15        -1.7990   -3.2950    0.0890 n         1 MOL     -0.114748
    178 C54        -2.2580   -4.5270    0.8100 c3        1 MOL     -0.095064
    179 H86        -1.7340   -4.6070    1.7620 h1        1 MOL      0.043988
    180 H87        -3.3310   -4.4640    0.9910 h1        1 MOL      0.043988
    181 H88        -2.0430   -5.4060    0.2020 h1        1 MOL      0.043988
    182 H89        -1.0210   -2.8410    0.5640 hn        1 MOL      0.206196
    183 Ca1        -0.3670    0.7050   -1.2630 Ca        1 MOL      1.829563
    184 O25        -3.0600    0.9120   -1.0420 oh        1 MOL     -0.886484
    185 H90        -3.6220    1.6510   -0.7960 ho        1 MOL      0.413160
    186 H91        -3.6610    0.1760   -1.1510 ho        1 MOL      0.413160
    187 O26        -1.9750    0.3140   -3.5790 oh        1 MOL     -0.886484
    188 H92        -2.8980    0.2400   -3.8240 ho        1 MOL      0.413160
    189 H93        -1.5460    0.6730   -4.3520 ho        1 MOL      0.413160
    190 O27         1.7260   -0.1200   -2.7280 oh        1 MOL     -0.886484
    191 H94         1.8230    0.5470   -3.4150 ho        1 MOL      0.413160
    192 H95         2.5830   -0.1550   -2.3050 ho        1 MOL      0.413160
@<TRIPOS>BOND
     1    1    2 1   
     2    1    4 1   
     3    1    5 1   
     4    1    6 1   
     5    2    3 2   
     6    2    7 1   
     7    7    8 1   
     8    7   15 1   
     9    8    9 1   
    10    8   11 1   
    11    8   16 1   
    12    9   10 2   
    13    9   19 1   
    14   11   12 1   
    15   11   17 1   
    16   11   18 1   
    17   12   13 1   
    18   12   14 1   
    19   19   20 1   
    20   19   28 1   
    21   20   21 1   
    22   20   23 1   
    23   20   29 1   
    24   21   22 2   
    25   21   41 1   
    26   23   24 1   
    27   23   30 1   
    28   23   31 1   
    29   24   25 1   
    30   24   32 1   
    31   24   33 1   
    32   25   26 1   
    33   25   34 1   
    34   25   35 1   
    35   26   27 1   
    36   26   36 1   
    37   26   37 1   
    38   27   38 1   
    39   27   39 1   
    40   27   40 1   
    41   41   42 1   
    42   41   49 1   
    43   42   43 1   
    44   42   45 1   
    45   42   50 1   
    46   43   44 2   
    47   43   53 1   
    48   45   46 1   
    49   45   51 1   
    50   45   52 1   
    51   46   47 1   
    52   46   48 1   
    53   53   54 1   
    54   53   57 1   
    55   54   55 1   
    56   54   58 1   
    57   54   59 1   
    58   55   56 2   
    59   55   60 1   
    60   60   61 1   
    61   60   68 1   
    62   61   62 1   
    63   61   64 1   
    64   61   69 1   
    65   62   63 2   
    66   62   72 1   
    67   64   65 1   
    68   64   70 1   
    69   64   71 1   
    70   65   66 1   
    71   65   67 1   
    72   72   73 1   
    73   72   76 1   
    74   73   74 1   
    75   73   77 1   
    76   73   78 1   
    77   74   75 2   
    78   74   79 1   
    79   79   80 1   
    80   79   86 1   
    81   80   81 1   
    82   80   83 1   
    83   80   87 1   
    84   81   82 2   
    85   81   93 1   
    86   83   84 1   
    87   83   85 1   
    88   83   88 1   
    89   84   90 1   
    90   84   91 1   
    91   84   92 1   
    92   85   89 1   
    93   93   94 1   
    94   93  101 1   
    95   94   95 1   
    96   94   97 1   
    97   94  102 1   
    98   95   96 2   
    99   95  112 1   
   100   97   98 1   
   101   97   99 1   
   102   97  103 1   
   103   98  100 1   
   104   98  104 1   
   105   98  105 1   
   106   99  106 1   
   107   99  107 1   
   108   99  108 1   
   109  100  109 1   
   110  100  110 1   
   111  100  111 1   
   112  112  113 1   
   113  112  119 1   
   114  113  114 1   
   115  113  116 1   
   116  113  120 1   
   117  114  115 2   
   118  114  126 1   
   119  116  117 1   
   120  116  118 1   
   121  116  121 1   
   122  117  123 1   
   123  117  124 1   
   124  117  125 1   
   125  118  122 1   
   126  126  127 1   
   127  126  133 1   
   128  127  128 1   
   129  127  130 1   
   130  127  134 1   
   131  128  129 2   
   132  128  140 1   
   133  130  131 1   
   134  130  132 1   
   135  130  135 1   
   136  131  137 1   
   137  131  138 1   
   138  131  139 1   
   139  132  136 1   
   140  140  141 1   
   141  140  149 1   
   142  141  142 1   
   143  141  144 1   
   144  141  150 1   
   145  142  143 2   
   146  142  162 1   
   147  144  145 1   
   148  144  151 1   
   149  144  152 1   
   150  145  146 1   
   151  145  153 1   
   152  145  154 1   
   153  146  147 1   
   154  146  155 1   
   155  146  156 1   
   156  147  148 1   
   157  147  157 1   
   158  147  158 1   
   159  148  159 1   
   160  148  160 1   
   161  148  161 1   
   162  162  163 1   
   163  162  171 1   
   164  163  164 1   
   165  163  166 1   
   166  163  172 1   
   167  164  165 2   
   168  164  177 1   
   169  166  167 1   
   170  166  173 1   
   171  166  174 1   
   172  167  168 1   
   173  167  175 1   
   174  167  176 1   
   175  168  169 1   
   176  168  170 1   
   177  177  178 1   
   178  177  182 1   
   179  178  179 1   
   180  178  180 1   
   181  178  181 1   
   182  184  185 1   
   183  184  186 1   
   184  187  188 1   
   185  187  189 1   
   186  190  191 1   
   187  190  192 1   
@<TRIPOS>SUBSTRUCTURE
     1 MOL         1 TEMP              0 ****  ****    0 ROOT
