@<TRIPOS>MOLECULE
MOL
  186   183     1     0     0
SMALL
resp


@<TRIPOS>ATOM
      1 C1        -11.4310   -5.3230   -2.9370 c3        1 MOL     -0.034071
      2 C2        -10.9970   -4.0690   -2.1090 c         1 MOL      0.673239
      3 O1        -10.8680   -2.9930   -2.7010 o         1 MOL     -0.591386
      4 H1        -10.7180   -6.1310   -2.7720 hc        1 MOL      0.006170
      5 H2        -12.4230   -5.6440   -2.6190 hc        1 MOL      0.006170
      6 H3        -11.4520   -5.0700   -3.9970 hc        1 MOL      0.006170
      7 N1        -10.7250   -4.1730   -0.7930 n         1 MOL     -0.423630
      8 C3        -10.5150   -3.0990    0.1250 c3        1 MOL     -0.443650
      9 C4         -9.2260   -2.3560   -0.3630 c         1 MOL      0.567448
     10 O2         -8.1600   -2.8860   -0.3480 o         1 MOL     -0.530552
     11 C5        -10.7510   -3.4370    1.6470 c3        1 MOL      0.005502
     12 C6         -9.8450   -4.4810    2.1990 c         1 MOL      0.954781
     13 O3         -8.8430   -5.0160    1.6050 o         1 MOL     -0.780282
     14 O4        -10.0960   -4.8650    3.3100 o         1 MOL     -0.780282
     15 H4        -10.8600   -5.1030   -0.4110 hn        1 MOL      0.172646
     16 H5        -11.3050   -2.3890   -0.1170 h1        1 MOL      0.157862
     17 H6        -11.7760   -3.7310    1.8540 hc        1 MOL      0.074576
     18 H7        -10.4920   -2.5470    2.2230 hc        1 MOL      0.074576
     19 N2         -9.4260   -1.1010   -0.8420 n         1 MOL     -0.125912
     20 C7         -8.3120   -0.3290   -1.2720 c3        1 MOL     -0.478436
     21 C8         -7.2840   -0.0820   -0.1910 c         1 MOL      0.820279
     22 O5         -7.6440    0.4640    0.8980 o         1 MOL     -0.583340
     23 C9         -8.8160    0.9610   -2.0320 c3        1 MOL     -0.131552
     24 C10        -7.7490    1.8630   -2.5190 c3        1 MOL     -0.126335
     25 C11        -6.8300    1.1440   -3.4780 c3        1 MOL     -0.056089
     26 C12        -5.9650    2.2570   -4.0830 c3        1 MOL     -0.017488
     27 N3         -4.5900    1.8130   -4.1400 n4        1 MOL     -0.341828
     28 H8        -10.3470   -0.6800   -0.7920 hn        1 MOL      0.232008
     29 H9         -7.7480   -0.9300   -1.9970 h1        1 MOL      0.244554
     30 H10        -9.4170    1.5310   -1.3250 hc        1 MOL      0.108458
     31 H11        -9.5830    0.7750   -2.7810 hc        1 MOL      0.108458
     32 H12        -7.1230    2.1750   -1.6790 hc        1 MOL      0.077780
     33 H13        -8.1930    2.7570   -2.9690 hc        1 MOL      0.077780
     34 H14        -7.4120    0.6950   -4.2840 hc        1 MOL      0.051040
     35 H15        -6.2830    0.3290   -3.0190 hc        1 MOL      0.051040
     36 H16        -6.0300    3.1060   -3.4020 hx        1 MOL      0.103144
     37 H17        -6.3520    2.6370   -5.0380 hx        1 MOL      0.103144
     38 H18        -3.9150    2.5420   -4.3620 hn        1 MOL      0.310329
     39 H19        -4.2470    1.5130   -3.2350 hn        1 MOL      0.310329
     40 H20        -4.5510    1.0170   -4.7480 hn        1 MOL      0.310329
     41 N4         -6.0000   -0.2580   -0.4630 n         1 MOL     -0.590958
     42 C13        -4.9370    0.0040    0.4550 c3        1 MOL      0.622953
     43 C14        -4.1060    1.1610   -0.1740 c         1 MOL      0.212383
     44 O6         -4.0760    1.3540   -1.3550 o         1 MOL     -0.505947
     45 C15        -4.1280   -1.3120    0.6980 c3        1 MOL     -0.243715
     46 C16        -4.9850   -2.5820    0.8260 c         1 MOL      0.746165
     47 O7         -4.9620   -3.4030   -0.1240 o         1 MOL     -0.760266
     48 O8         -5.6500   -2.8060    1.8560 o         1 MOL     -0.760266
     49 H21        -5.8760   -0.7200   -1.3590 hn        1 MOL      0.186103
     50 H22        -5.3750    0.2800    1.4180 h1        1 MOL     -0.012198
     51 H23        -3.5130   -1.1920    1.5860 hc        1 MOL      0.061226
     52 H24        -3.3810   -1.3660   -0.0900 hc        1 MOL      0.061226
     53 N5         -3.1470    1.7260    0.5280 n         1 MOL     -0.144725
     54 C17        -2.8050    1.7250    1.9840 c3        1 MOL     -0.630373
     55 C18        -3.0150    3.1170    2.5660 c         1 MOL      0.860605
     56 O9         -3.9110    3.8560    2.1210 o         1 MOL     -0.611381
     57 H25        -2.5620    2.2470   -0.1130 hn        1 MOL      0.222849
     58 H26        -1.7470    1.4960    2.1040 h1        1 MOL      0.228956
     59 H27        -3.4200    1.0630    2.5850 h1        1 MOL      0.228956
     60 N6         -2.1500    3.5240    3.4490 n         1 MOL     -0.583953
     61 C19        -2.0620    4.8870    4.0120 c3        1 MOL      0.039195
     62 C20        -0.8740    5.7510    3.5180 c         1 MOL      0.523189
     63 O10         0.2450    5.5080    3.9200 o         1 MOL     -0.477059
     64 C21        -2.1250    4.8380    5.5700 c3        1 MOL     -0.169743
     65 C22        -2.1190    6.1670    6.2950 c         1 MOL      0.699146
     66 O11        -2.0420    7.2290    5.6610 o         1 MOL     -0.639999
     67 O12        -2.0320    6.0300    7.5670 o         1 MOL     -0.639999
     68 H28        -1.4540    2.8720    3.7890 hn        1 MOL      0.328336
     69 H29        -2.9390    5.4610    3.7020 h1        1 MOL      0.049560
     70 H30        -1.2840    4.2300    5.8950 hc        1 MOL      0.053592
     71 H31        -3.0840    4.3580    5.7740 hc        1 MOL      0.053592
     72 N7         -1.2440    6.7320    2.6320 n         1 MOL     -0.317902
     73 C23        -0.3140    7.6520    1.9580 c3        1 MOL     -0.164976
     74 C24         0.3010    6.9430    0.8050 c         1 MOL      0.497866
     75 O13         1.4300    7.3020    0.4270 o         1 MOL     -0.557420
     76 H32        -2.2380    6.8240    2.5030 hn        1 MOL      0.247650
     77 H33         0.5090    7.9780    2.5870 h1        1 MOL      0.133661
     78 H34        -0.8100    8.5640    1.6150 h1        1 MOL      0.133661
     79 N8         -0.3250    5.9010    0.3260 n         1 MOL     -0.320312
     80 C25        -0.0000    5.1060   -0.9210 c3        1 MOL     -0.099164
     81 C26         0.2070    3.6410   -0.5850 c         1 MOL      0.653188
     82 O14        -0.4790    3.1370    0.2550 o         1 MOL     -0.528733
     83 C27        -1.1660    5.3870   -1.9160 c3        1 MOL      0.560155
     84 C28        -0.8100    5.1610   -3.3500 c3        1 MOL     -0.304194
     85 O15        -2.4210    4.8250   -1.7240 oh        1 MOL     -0.655021
     86 H35        -1.2410    5.6580    0.6720 hn        1 MOL      0.147718
     87 H36         0.9330    5.5460   -1.2840 h1        1 MOL      0.053343
     88 H37        -1.3260    6.4670   -1.8550 h1        1 MOL     -0.049670
     89 H38        -2.7310    5.0580   -0.8520 ho        1 MOL      0.405650
     90 H39        -0.4060    4.1690   -3.5510 hc        1 MOL      0.058172
     91 H40        -1.6850    5.4670   -3.9280 hc        1 MOL      0.058172
     92 H41        -0.0430    5.9020   -3.6060 hc        1 MOL      0.058172
     93 N9          1.1670    2.9850   -1.2680 n         1 MOL     -0.384930
     94 C29         1.4930    1.5270   -1.0930 c3        1 MOL     -0.277416
     95 C30         3.0570    1.2630   -1.1990 c         1 MOL      0.768393
     96 O16         3.5610    0.3650   -0.6120 o         1 MOL     -0.543679
     97 C31         0.7620    0.6690   -2.1120 c3        1 MOL      0.049220
     98 C32         0.9700    1.0300   -3.5400 c3        1 MOL      0.363058
     99 C33        -0.6880    0.5660   -1.7760 c3        1 MOL      0.086941
    100 C34         0.3090    0.0210   -4.5610 c3        1 MOL     -0.513281
    101 H42         1.8100    3.5750   -1.7870 hn        1 MOL      0.255192
    102 H43         1.2770    1.1610   -0.1000 h1        1 MOL      0.173898
    103 H44         1.2000   -0.3370   -2.1060 hc        1 MOL      0.021852
    104 H45         2.0300    0.9950   -3.7900 hc        1 MOL     -0.090169
    105 H46         0.6850    2.0750   -3.6440 hc        1 MOL     -0.090169
    106 H47        -1.0400   -0.3740   -2.1850 hc        1 MOL     -0.041937
    107 H48        -0.8970    0.5060   -0.7070 hc        1 MOL     -0.041937
    108 H49        -1.1690    1.4640   -2.1730 hc        1 MOL     -0.041937
    109 H50         0.6830    0.3010   -5.5510 hc        1 MOL      0.125526
    110 H51         0.7810   -0.9360   -4.3440 hc        1 MOL      0.125526
    111 H52        -0.7780    0.0190   -4.5030 hc        1 MOL      0.125526
    112 N10         3.8230    2.2080   -1.8450 n         1 MOL     -0.656567
    113 C35         5.3070    2.2760   -1.7400 c3        1 MOL     -0.056917
    114 C36         5.9510    1.3330   -2.7110 c         1 MOL      0.703219
    115 O17         5.6620    1.2990   -3.8930 o         1 MOL     -0.544883
    116 C37         5.7050    3.7830   -1.9190 c3        1 MOL      0.264491
    117 C38         5.0140    4.6170   -0.7860 c3        1 MOL     -0.197770
    118 O18         7.1070    3.9940   -1.6950 oh        1 MOL     -0.636643
    119 H53         3.3000    2.8960   -2.3710 hn        1 MOL      0.296258
    120 H54         5.4960    1.9280   -0.7260 h1        1 MOL      0.171917
    121 H55         5.5050    4.2110   -2.8990 h1        1 MOL      0.040016
    122 H56         7.2930    4.8840   -2.0040 ho        1 MOL      0.400189
    123 H57         5.3240    4.3310    0.2150 hc        1 MOL      0.066646
    124 H58         5.2130    5.6760   -0.9540 hc        1 MOL      0.066646
    125 H59         3.9430    4.6090   -0.9730 hc        1 MOL      0.066646
    126 N11         7.0040    0.5830   -2.1780 n         1 MOL     -0.598483
    127 C39         7.7610   -0.3680   -2.9380 c3        1 MOL      0.053868
    128 C40         8.1910   -1.6180   -2.0910 c         1 MOL      0.518481
    129 O19         8.0950   -2.7370   -2.6650 o         1 MOL     -0.559129
    130 C41         9.0360    0.2300   -3.5300 c3        1 MOL      0.170098
    131 C42         9.7750   -0.6320   -4.5090 c3        1 MOL     -0.306739
    132 O20         9.9210    0.5690   -2.4820 oh        1 MOL     -0.616153
    133 H60         7.2680    0.8300   -1.2370 hn        1 MOL      0.286910
    134 H61         7.0920   -0.7960   -3.6750 h1        1 MOL      0.126072
    135 H62         8.7680    1.1600   -4.0320 h1        1 MOL      0.057925
    136 H63        10.4320    1.3150   -2.7870 ho        1 MOL      0.409015
    137 H64        10.2200   -1.4170   -3.8950 hc        1 MOL      0.088450
    138 H65         9.1690   -1.0300   -5.3330 hc        1 MOL      0.088450
    139 H66        10.6420   -0.1020   -4.8990 hc        1 MOL      0.088450
    140 N12         8.7130   -1.4510   -0.8820 n         1 MOL     -0.268487
    141 C43         9.0780   -2.5740   -0.0160 c3        1 MOL     -0.108339
    142 C44         7.9900   -2.6890    1.0460 c         1 MOL      0.422487
    143 O21         7.6310   -1.7190    1.6370 o         1 MOL     -0.524446
    144 C45        10.4670   -2.3690    0.6760 c3        1 MOL     -0.025906
    145 C46        11.4990   -2.1870   -0.5100 c3        1 MOL      0.139418
    146 C47        12.9580   -2.4770   -0.0030 c3        1 MOL     -0.206323
    147 C48        13.4860   -1.6140    1.1870 c3        1 MOL     -0.064378
    148 N13        13.8180   -0.2290    0.7280 n4        1 MOL     -0.177822
    149 H67         8.7520   -0.5220   -0.4960 hn        1 MOL      0.290412
    150 H68         9.0530   -3.5460   -0.5140 h1        1 MOL      0.110145
    151 H69        10.7590   -3.3250    1.1080 hc        1 MOL      0.038054
    152 H70        10.4360   -1.5180    1.3620 hc        1 MOL      0.038054
    153 H71        11.3820   -1.1650   -0.8920 hc        1 MOL     -0.005010
    154 H72        11.3690   -2.9180   -1.3080 hc        1 MOL     -0.005010
    155 H73        13.5650   -2.3650   -0.9100 hc        1 MOL      0.089311
    156 H74        13.0660   -3.5280    0.2570 hc        1 MOL      0.089311
    157 H75        14.3180   -2.1390    1.6470 hx        1 MOL      0.116804
    158 H76        12.7190   -1.5740    1.9620 hx        1 MOL      0.116804
    159 H77        14.2930   -0.2590   -0.1680 hn        1 MOL      0.215531
    160 H78        13.1210    0.5010    0.7430 hn        1 MOL      0.215531
    161 H79        14.5480    0.1420    1.3290 hn        1 MOL      0.215531
    162 N14         7.3190   -3.8290    1.1210 n         1 MOL     -0.305250
    163 C49         6.4680   -4.1890    2.3140 c3        1 MOL      0.319390
    164 C50         4.9130   -3.9120    2.1360 c         1 MOL      0.288967
    165 O22         4.2980   -3.3910    3.0730 o         1 MOL     -0.544720
    166 C51         6.6110   -5.6460    2.6500 c3        1 MOL     -0.247148
    167 C52         5.7690   -6.2600    3.8190 c3        1 MOL     -0.047845
    168 C53         6.0650   -7.7400    3.9750 c         1 MOL      0.659817
    169 O23         5.0980   -8.4880    4.1970 o         1 MOL     -0.637424
    170 O24         7.2770   -8.1950    3.9540 o         1 MOL     -0.637424
    171 H80         7.6840   -4.5630    0.5330 hn        1 MOL      0.221883
    172 H81         6.7940   -3.5970    3.1600 h1        1 MOL      0.039874
    173 H82         7.6740   -5.7730    2.8760 hc        1 MOL      0.032826
    174 H83         6.4720   -6.1300    1.6840 hc        1 MOL      0.032826
    175 H84         4.7090   -6.1850    3.6000 hc        1 MOL      0.040142
    176 H85         5.8770   -5.7210    4.7720 hc        1 MOL      0.040142
    177 N15         4.2100   -4.1920    1.0900 n         1 MOL     -0.176379
    178 C54         4.6180   -4.9200   -0.1160 c3        1 MOL     -0.226445
    179 H86         5.0680   -5.8710    0.1690 h1        1 MOL      0.096738
    180 H87         3.7450   -5.1040   -0.7420 h1        1 MOL      0.096738
    181 H88         5.3450   -4.3260   -0.6710 h1        1 MOL      0.096738
    182 H89         3.2320   -3.9140    1.1580 hn        1 MOL      0.252500
    183 Ca1        -6.9030   -5.1410    0.0700 Ca        1 MOL      1.513422
    184 O25        -7.0070   -4.7000   -2.8580 oh        1 MOL     -0.752782
    185 H90        -7.0970   -4.7230   -3.8140 ho        1 MOL      0.345579
    186 H91        -6.8290   -5.6150   -2.6120 ho        1 MOL      0.345579
@<TRIPOS>BOND
     1    1    2 1   
     2    1    4 1   
     3    1    5 1   
     4    1    6 1   
     5    2    3 2   
     6    2    7 1   
     7    7    8 1   
     8    7   15 1   
     9    8    9 1   
    10    8   11 1   
    11    8   16 1   
    12    9   10 2   
    13    9   19 1   
    14   11   12 1   
    15   11   17 1   
    16   11   18 1   
    17   12   13 1   
    18   12   14 1   
    19   19   20 1   
    20   19   28 1   
    21   20   21 1   
    22   20   23 1   
    23   20   29 1   
    24   21   22 2   
    25   21   41 1   
    26   23   24 1   
    27   23   30 1   
    28   23   31 1   
    29   24   25 1   
    30   24   32 1   
    31   24   33 1   
    32   25   26 1   
    33   25   34 1   
    34   25   35 1   
    35   26   27 1   
    36   26   36 1   
    37   26   37 1   
    38   27   38 1   
    39   27   39 1   
    40   27   40 1   
    41   41   42 1   
    42   41   49 1   
    43   42   43 1   
    44   42   45 1   
    45   42   50 1   
    46   43   44 2   
    47   43   53 1   
    48   45   46 1   
    49   45   51 1   
    50   45   52 1   
    51   46   47 1   
    52   46   48 1   
    53   53   54 1   
    54   53   57 1   
    55   54   55 1   
    56   54   58 1   
    57   54   59 1   
    58   55   56 2   
    59   55   60 1   
    60   60   61 1   
    61   60   68 1   
    62   61   62 1   
    63   61   64 1   
    64   61   69 1   
    65   62   63 2   
    66   62   72 1   
    67   64   65 1   
    68   64   70 1   
    69   64   71 1   
    70   65   66 1   
    71   65   67 1   
    72   72   73 1   
    73   72   76 1   
    74   73   74 1   
    75   73   77 1   
    76   73   78 1   
    77   74   75 2   
    78   74   79 1   
    79   79   80 1   
    80   79   86 1   
    81   80   81 1   
    82   80   83 1   
    83   80   87 1   
    84   81   82 2   
    85   81   93 1   
    86   83   84 1   
    87   83   85 1   
    88   83   88 1   
    89   84   90 1   
    90   84   91 1   
    91   84   92 1   
    92   85   89 1   
    93   93   94 1   
    94   93  101 1   
    95   94   95 1   
    96   94   97 1   
    97   94  102 1   
    98   95   96 2   
    99   95  112 1   
   100   97   98 1   
   101   97   99 1   
   102   97  103 1   
   103   98  100 1   
   104   98  104 1   
   105   98  105 1   
   106   99  106 1   
   107   99  107 1   
   108   99  108 1   
   109  100  109 1   
   110  100  110 1   
   111  100  111 1   
   112  112  113 1   
   113  112  119 1   
   114  113  114 1   
   115  113  116 1   
   116  113  120 1   
   117  114  115 2   
   118  114  126 1   
   119  116  117 1   
   120  116  118 1   
   121  116  121 1   
   122  117  123 1   
   123  117  124 1   
   124  117  125 1   
   125  118  122 1   
   126  126  127 1   
   127  126  133 1   
   128  127  128 1   
   129  127  130 1   
   130  127  134 1   
   131  128  129 2   
   132  128  140 1   
   133  130  131 1   
   134  130  132 1   
   135  130  135 1   
   136  131  137 1   
   137  131  138 1   
   138  131  139 1   
   139  132  136 1   
   140  140  141 1   
   141  140  149 1   
   142  141  142 1   
   143  141  144 1   
   144  141  150 1   
   145  142  143 2   
   146  142  162 1   
   147  144  145 1   
   148  144  151 1   
   149  144  152 1   
   150  145  146 1   
   151  145  153 1   
   152  145  154 1   
   153  146  147 1   
   154  146  155 1   
   155  146  156 1   
   156  147  148 1   
   157  147  157 1   
   158  147  158 1   
   159  148  159 1   
   160  148  160 1   
   161  148  161 1   
   162  162  163 1   
   163  162  171 1   
   164  163  164 1   
   165  163  166 1   
   166  163  172 1   
   167  164  165 2   
   168  164  177 1   
   169  166  167 1   
   170  166  173 1   
   171  166  174 1   
   172  167  168 1   
   173  167  175 1   
   174  167  176 1   
   175  168  169 1   
   176  168  170 1   
   177  177  178 1   
   178  177  182 1   
   179  178  179 1   
   180  178  180 1   
   181  178  181 1   
   182  184  185 1   
   183  184  186 1   
@<TRIPOS>SUBSTRUCTURE
     1 MOL         1 TEMP              0 ****  ****    0 ROOT
