@<TRIPOS>MOLECULE
MOL
  181   177     1     0     0
SMALL
resp


@<TRIPOS>ATOM
      1 C1        -13.0200   -5.4760   -2.2730 c3        1 MOL     -0.401819
      2 C2        -12.1520   -4.8080   -1.1860 c         1 MOL      0.661944
      3 O1        -12.0550   -5.2500   -0.0610 o         1 MOL     -0.599933
      4 H1        -12.3990   -5.7150   -3.1370 hc        1 MOL      0.106104
      5 H2        -13.4570   -6.3930   -1.8770 hc        1 MOL      0.106104
      6 H3        -13.8140   -4.7940   -2.5740 hc        1 MOL      0.106104
      7 N1        -11.7050   -3.5550   -1.3380 n         1 MOL     -0.433141
      8 C3        -11.3590   -2.7860   -2.5460 c3        1 MOL      0.110960
      9 C4        -11.8870   -1.3970   -2.4540 c         1 MOL      0.420867
     10 O2        -11.6640   -0.6660   -3.3930 o         1 MOL     -0.541023
     11 C5         -9.8710   -2.9080   -2.7660 c3        1 MOL     -0.378857
     12 C6         -9.0420   -2.2180   -1.6750 c         1 MOL      0.847844
     13 O3         -7.8440   -2.3160   -1.6740 o         1 MOL     -0.654668
     14 O4         -9.5680   -1.4200   -0.8330 o         1 MOL     -0.654668
     15 H4        -11.2470   -3.1840   -0.5190 hn        1 MOL      0.268358
     16 H5        -11.7920   -3.2050   -3.4540 h1        1 MOL      0.079365
     17 H6         -9.6500   -2.6270   -3.7950 hc        1 MOL      0.093294
     18 H7         -9.6950   -3.9890   -2.7480 hc        1 MOL      0.093294
     19 N2        -12.5100   -1.0890   -1.3650 n         1 MOL     -0.385594
     20 C7        -13.2480    0.0980   -1.0220 c3        1 MOL      0.214830
     21 C8        -12.5480    1.0490   -0.0210 c         1 MOL      0.445627
     22 O5        -13.1210    1.9420    0.4440 o         1 MOL     -0.507777
     23 C9        -14.5670   -0.3290   -0.4050 c3        1 MOL     -0.366428
     24 H8        -12.5060   -1.8160   -0.6590 hn        1 MOL      0.213324
     25 H9        -13.2710    0.7670   -1.8790 h1        1 MOL      0.043920
     26 H10       -15.1250    0.5340   -0.0220 hc        1 MOL      0.099724
     27 H11       -15.1700   -0.9460   -1.0830 hc        1 MOL      0.099724
     28 H12       -14.4480   -1.0550    0.4000 hc        1 MOL      0.099724
     29 N3        -11.2420    0.8180    0.2150 n         1 MOL     -0.029460
     30 C10       -10.3760    1.7770    0.9650 c3        1 MOL     -0.581047
     31 C11        -8.9430    1.7620    0.4710 c         1 MOL      0.775253
     32 O6         -8.3340    0.7300    0.1760 o         1 MOL     -0.596747
     33 C12       -10.4160    1.5500    2.4540 c3        1 MOL      0.190758
     34 C13       -10.4510    0.0890    2.8590 c         1 MOL      0.499455
     35 O7         -9.3620   -0.5510    2.7210 o         1 MOL     -0.653594
     36 O8        -11.4170   -0.4690    3.4210 o         1 MOL     -0.653594
     37 H13       -10.6800    0.0700   -0.1520 hn        1 MOL      0.127293
     38 H14       -10.7260    2.8030    0.8640 h1        1 MOL      0.150813
     39 H15       -11.1600    2.2310    2.8580 hc        1 MOL     -0.005662
     40 H16        -9.5470    1.9570    2.9780 hc        1 MOL     -0.005662
     41 N4         -8.3170    2.9610    0.6150 n         1 MOL     -0.475830
     42 C14        -6.9950    3.3310    0.0320 c3        1 MOL     -0.249299
     43 C15        -5.7770    2.5990    0.6510 c         1 MOL      0.813932
     44 O9         -5.7760    2.0900    1.8040 o         1 MOL     -0.633091
     45 H17        -8.8220    3.7280    1.0280 hn        1 MOL      0.338423
     46 H18        -6.8020    4.4000    0.1180 h1        1 MOL      0.131141
     47 H19        -6.8810    2.9920   -1.0030 h1        1 MOL      0.131141
     48 N5         -4.7990    2.4110   -0.2010 n         1 MOL     -0.759410
     49 C16        -3.5810    1.6340    0.0080 c3        1 MOL      0.274041
     50 C17        -2.3750    2.5630   -0.2940 c         1 MOL      0.708678
     51 O10        -2.5070    3.6890   -0.8050 o         1 MOL     -0.548802
     52 C18        -3.6050    0.3960   -0.9640 c3        1 MOL     -0.479371
     53 C19        -4.8670   -0.4510   -0.9200 c         1 MOL      0.755874
     54 N6         -5.4440   -0.8620   -2.0480 n         1 MOL     -0.618905
     55 O11        -5.3750   -0.8950    0.0030 o         1 MOL     -0.557616
     56 H20        -4.9140    2.8630   -1.0940 hn        1 MOL      0.341641
     57 H21        -3.5230    1.1950    1.0050 h1        1 MOL      0.049899
     58 H22        -2.7490   -0.2330   -0.7230 hc        1 MOL      0.128389
     59 H23        -3.3880    0.7240   -1.9810 hc        1 MOL      0.128389
     60 H24        -4.9150   -0.6330   -2.8760 hn        1 MOL      0.271508
     61 H25        -6.2780   -1.4290   -2.0830 hn        1 MOL      0.271508
     62 N7         -1.1550    2.0510    0.0030 n         1 MOL     -0.778691
     63 C20         0.0120    2.8390   -0.3530 c3        1 MOL      0.299501
     64 C21         0.4720    4.0330    0.6000 c         1 MOL      0.452764
     65 O12         0.3440    4.0140    1.8110 o         1 MOL     -0.503152
     66 H26        -0.9690    1.1440    0.3910 hn        1 MOL      0.403565
     67 H27        -0.1620    3.2190   -1.3620 h1        1 MOL      0.040179
     68 H28         0.7980    2.1020   -0.5230 h1        1 MOL      0.040179
     69 N8          1.1160    5.0740    0.0170 n         1 MOL     -0.390328
     70 C22         1.8070    5.0880   -1.2740 c3        1 MOL     -0.122010
     71 C23         3.1220    4.3920   -1.3580 c         1 MOL      0.320359
     72 O13         3.6680    4.1380   -2.4510 o         1 MOL     -0.524529
     73 C24         1.9570    6.5420   -1.7560 c3        1 MOL      0.179701
     74 C25         0.6050    7.0800   -2.3430 c3        1 MOL     -0.210708
     75 O14         2.1350    7.4070   -0.6020 oh        1 MOL     -0.616927
     76 H29         1.4580    5.7720    0.6650 hn        1 MOL      0.314971
     77 H30         1.1950    4.5720   -2.0240 h1        1 MOL      0.155494
     78 H31         2.7890    6.6890   -2.4480 h1        1 MOL      0.083919
     79 H32         2.4290    8.2850   -0.8660 ho        1 MOL      0.408616
     80 H33        -0.0890    7.0900   -1.5090 hc        1 MOL      0.051753
     81 H34         0.6860    8.0670   -2.7910 hc        1 MOL      0.051753
     82 H35         0.1900    6.4100   -3.0960 hc        1 MOL      0.051753
     83 N9          3.7060    4.1670   -0.2060 n         1 MOL     -0.170791
     84 C26         4.9990    3.5030   -0.0610 c3        1 MOL     -0.057220
     85 C27         4.6880    2.0620    0.2990 c         1 MOL      0.467448
     86 O15         3.6880    1.8050    0.9500 o         1 MOL     -0.584392
     87 C28         5.7540    4.2510    1.0460 c3        1 MOL      0.182563
     88 C29         6.0170    5.7190    0.6800 c3        1 MOL      0.144707
     89 C30         7.0070    3.5650    1.5730 c3        1 MOL     -0.117427
     90 C31         6.8690    6.5080    1.7130 c3        1 MOL     -0.291170
     91 H36         3.2790    4.5300    0.6340 hn        1 MOL      0.218685
     92 H37         5.5150    3.6430   -1.0130 h1        1 MOL      0.097633
     93 H38         5.1050    4.3440    1.9140 hc        1 MOL      0.007225
     94 H39         5.0800    6.2650    0.7080 hc        1 MOL     -0.064195
     95 H40         6.4550    5.6400   -0.3100 hc        1 MOL     -0.064195
     96 H41         7.8810    3.5830    0.9210 hc        1 MOL      0.026146
     97 H42         7.3250    4.0740    2.4780 hc        1 MOL      0.026146
     98 H43         6.8070    2.5190    1.8090 hc        1 MOL      0.026146
     99 H44         6.3460    6.2260    2.6240 hc        1 MOL      0.065958
    100 H45         7.9140    6.1630    1.6990 hc        1 MOL      0.065958
    101 H46         6.8620    7.5800    1.5200 hc        1 MOL      0.065958
    102 N10         5.4510    1.1080   -0.1860 n         1 MOL     -0.175946
    103 C32         6.4860    1.2490   -1.1880 c3        1 MOL      0.059947
    104 C33         7.5140    0.0830   -1.0790 c         1 MOL      0.448368
    105 O16         7.2110   -0.9450   -0.4860 o         1 MOL     -0.470409
    106 C34         5.8710    1.1780   -2.6240 c3        1 MOL     -0.055761
    107 C35         4.9880   -0.0520   -2.8890 c         1 MOL      0.608732
    108 O17         3.7670    0.0370   -2.7360 o         1 MOL     -0.692239
    109 O18         5.6050   -1.1390   -3.1640 o         1 MOL     -0.692239
    110 H47         5.2940    0.1280    0.0150 hn        1 MOL      0.264868
    111 H48         7.0320    2.1890   -1.1250 h1        1 MOL      0.009590
    112 H49         6.6890    1.3010   -3.3280 hc        1 MOL     -0.022617
    113 H50         5.3050    2.1090   -2.7270 hc        1 MOL     -0.022617
    114 N11         8.7870    0.3390   -1.5000 n         1 MOL     -0.589867
    115 C36         9.8430   -0.6750   -1.4730 c3        1 MOL      0.342714
    116 C37        10.8380   -0.4660   -0.2940 c         1 MOL      0.311675
    117 O19        11.1190    0.6780    0.0170 o         1 MOL     -0.499130
    118 C38        10.4970   -0.6420   -2.8550 c3        1 MOL     -0.080917
    119 C39        11.3230   -1.7970   -3.0790 ca        1 MOL      0.002142
    120 C40        10.7420   -3.0150   -3.5030 ca        1 MOL     -0.119236
    121 C41        12.7010   -1.7510   -3.0480 ca        1 MOL     -0.119236
    122 C42        11.5270   -4.1110   -3.9200 ca        1 MOL     -0.143356
    123 C43        13.5250   -2.8520   -3.3780 ca        1 MOL     -0.143356
    124 C44        12.9000   -4.0410   -3.8300 ca        1 MOL     -0.098811
    125 H51         9.0190    1.2400   -1.8800 hn        1 MOL      0.309035
    126 H52         9.3810   -1.6620   -1.4720 h1        1 MOL      0.080419
    127 H53        11.1510    0.2170   -3.0210 hc        1 MOL      0.034442
    128 H54         9.6870   -0.5710   -3.5830 hc        1 MOL      0.034442
    129 H55         9.6590   -3.0710   -3.5500 ha        1 MOL      0.110262
    130 H56        13.2240   -0.8130   -2.9480 ha        1 MOL      0.110262
    131 H57        10.9780   -4.9690   -4.2730 ha        1 MOL      0.109962
    132 H58        14.5910   -2.7700   -3.5540 ha        1 MOL      0.109962
    133 H59        13.4960   -4.8980   -4.1390 ha        1 MOL      0.085072
    134 N12        11.3710   -1.5670    0.3380 n         1 MOL     -0.078489
    135 C45        10.9800   -2.9340    0.1330 c3        1 MOL      0.094640
    136 C46         9.5610   -3.2160    0.6570 c         1 MOL      0.385848
    137 O20         8.9530   -4.0570    0.0200 o         1 MOL     -0.545067
    138 C47        12.0280   -3.7860    0.7880 c3        1 MOL     -0.071989
    139 C48        13.1090   -2.8540    1.1250 c3        1 MOL      0.048128
    140 C49        12.4890   -1.4690    1.2390 c3        1 MOL     -0.242678
    141 H60        11.0510   -3.2070   -0.9270 h1        1 MOL      0.077224
    142 H61        11.5750   -4.2670    1.6530 hc        1 MOL      0.033654
    143 H62        12.3270   -4.5330    0.0510 hc        1 MOL      0.033654
    144 H63        13.5620   -3.1330    2.0770 hc        1 MOL     -0.006312
    145 H64        13.9110   -2.8920    0.3860 hc        1 MOL     -0.006312
    146 H65        12.1170   -1.3030    2.2570 h1        1 MOL      0.114024
    147 H66        13.1590   -0.6520    0.9740 h1        1 MOL      0.114024
    148 N13         9.1380   -2.6020    1.7570 n         1 MOL     -0.267126
    149 C50         7.8830   -3.0210    2.3570 c3        1 MOL      0.086233
    150 C51         8.0750   -4.3910    3.0450 c         1 MOL      0.379747
    151 O21         8.9470   -4.5560    3.9580 o         1 MOL     -0.582831
    152 C52         7.5420   -2.0250    3.5000 c3        1 MOL      0.086517
    153 C53         7.4940   -0.5290    3.0130 c3        1 MOL     -0.138034
    154 C54         7.2580    0.5020    4.0920 c         1 MOL      0.722484
    155 O22         8.1760    1.2810    4.4600 o         1 MOL     -0.731915
    156 O23         6.1240    0.4930    4.7200 o         1 MOL     -0.731915
    157 H67         9.6600   -1.8700    2.2080 hn        1 MOL      0.259875
    158 H68         7.0350   -3.1240    1.6770 h1        1 MOL      0.113040
    159 H69         8.2760   -2.0360    4.3060 hc        1 MOL     -0.010648
    160 H70         6.5860   -2.3620    3.8950 hc        1 MOL     -0.010648
    161 H71         6.6950   -0.4020    2.2810 hc        1 MOL     -0.029060
    162 H72         8.3940   -0.3540    2.4140 hc        1 MOL     -0.029060
    163 N14         7.3000   -5.4230    2.7210 n         1 MOL     -0.288132
    164 C55         6.2270   -5.6080    1.6810 c3        1 MOL     -0.136790
    165 H73         6.5890   -6.2760    0.8990 h1        1 MOL      0.079830
    166 H74         5.3410   -6.0400    2.1460 h1        1 MOL      0.079830
    167 H75         5.9740   -4.6420    1.2430 h1        1 MOL      0.079830
    168 H76         7.3260   -6.2000    3.3590 hn        1 MOL      0.248029
    169 Ca1        -7.7270   -1.6500    1.0940 Ca        1 MOL      1.680109
    170 O24        -5.9070   -3.6640    0.6880 oh        1 MOL     -0.859569
    171 H77        -5.0510   -3.7460    0.2720 ho        1 MOL      0.417726
    172 H78        -5.9600   -4.4130    1.2750 ho        1 MOL      0.417726
    173 O25        -9.1410   -3.8980    0.7270 oh        1 MOL     -0.859569
    174 H79        -9.8120   -3.9160    1.4050 ho        1 MOL      0.417726
    175 H80        -9.0910   -4.8030    0.4110 ho        1 MOL      0.417726
    176 O26        -6.3470   -0.1360    2.8090 oh        1 MOL     -0.859569
    177 H81        -6.4100   -0.1220    3.7560 ho        1 MOL      0.417726
    178 H82        -5.9720    0.7150    2.5740 ho        1 MOL      0.417726
    179 O27        -7.2270   -3.0240    3.4130 oh        1 MOL     -0.859569
    180 H83        -8.0180   -3.0250    3.9470 ho        1 MOL      0.417726
    181 H84        -6.5470   -3.3560    3.9980 ho        1 MOL      0.417726
@<TRIPOS>BOND
     1    1    2 1   
     2    1    4 1   
     3    1    5 1   
     4    1    6 1   
     5    2    3 2   
     6    2    7 1   
     7    7    8 1   
     8    7   15 1   
     9    8    9 1   
    10    8   11 1   
    11    8   16 1   
    12    9   10 2   
    13    9   19 1   
    14   11   12 1   
    15   11   17 1   
    16   11   18 1   
    17   12   13 1   
    18   12   14 1   
    19   19   20 1   
    20   19   24 1   
    21   20   21 1   
    22   20   23 1   
    23   20   25 1   
    24   21   22 2   
    25   21   29 1   
    26   23   26 1   
    27   23   27 1   
    28   23   28 1   
    29   29   30 1   
    30   29   37 1   
    31   30   31 1   
    32   30   33 1   
    33   30   38 1   
    34   31   32 2   
    35   31   41 1   
    36   33   34 1   
    37   33   39 1   
    38   33   40 1   
    39   34   35 1   
    40   34   36 1   
    41   41   42 1   
    42   41   45 1   
    43   42   43 1   
    44   42   46 1   
    45   42   47 1   
    46   43   44 2   
    47   43   48 1   
    48   48   49 1   
    49   48   56 1   
    50   49   50 1   
    51   49   52 1   
    52   49   57 1   
    53   50   51 2   
    54   50   62 1   
    55   52   53 1   
    56   52   58 1   
    57   52   59 1   
    58   53   54 1   
    59   53   55 2   
    60   54   60 1   
    61   54   61 1   
    62   62   63 1   
    63   62   66 1   
    64   63   64 1   
    65   63   67 1   
    66   63   68 1   
    67   64   65 2   
    68   64   69 1   
    69   69   70 1   
    70   69   76 1   
    71   70   71 1   
    72   70   73 1   
    73   70   77 1   
    74   71   72 2   
    75   71   83 1   
    76   73   74 1   
    77   73   75 1   
    78   73   78 1   
    79   74   80 1   
    80   74   81 1   
    81   74   82 1   
    82   75   79 1   
    83   83   84 1   
    84   83   91 1   
    85   84   85 1   
    86   84   87 1   
    87   84   92 1   
    88   85   86 2   
    89   85  102 1   
    90   87   88 1   
    91   87   89 1   
    92   87   93 1   
    93   88   90 1   
    94   88   94 1   
    95   88   95 1   
    96   89   96 1   
    97   89   97 1   
    98   89   98 1   
    99   90   99 1   
   100   90  100 1   
   101   90  101 1   
   102  102  103 1   
   103  102  110 1   
   104  103  104 1   
   105  103  106 1   
   106  103  111 1   
   107  104  105 2   
   108  104  114 1   
   109  106  107 1   
   110  106  112 1   
   111  106  113 1   
   112  107  108 1   
   113  107  109 1   
   114  114  115 1   
   115  114  125 1   
   116  115  116 1   
   117  115  118 1   
   118  115  126 1   
   119  116  117 2   
   120  116  134 1   
   121  118  119 1   
   122  118  127 1   
   123  118  128 1   
   124  119  120 ar  
   125  119  121 ar  
   126  120  122 ar  
   127  120  129 1   
   128  121  123 ar  
   129  121  130 1   
   130  122  124 ar  
   131  122  131 1   
   132  123  124 ar  
   133  123  132 1   
   134  124  133 1   
   135  134  135 1   
   136  134  140 1   
   137  135  136 1   
   138  135  138 1   
   139  135  141 1   
   140  136  137 2   
   141  136  148 1   
   142  138  139 1   
   143  138  142 1   
   144  138  143 1   
   145  139  140 1   
   146  139  144 1   
   147  139  145 1   
   148  140  146 1   
   149  140  147 1   
   150  148  149 1   
   151  148  157 1   
   152  149  150 1   
   153  149  152 1   
   154  149  158 1   
   155  150  151 2   
   156  150  163 1   
   157  152  153 1   
   158  152  159 1   
   159  152  160 1   
   160  153  154 1   
   161  153  161 1   
   162  153  162 1   
   163  154  155 1   
   164  154  156 1   
   165  163  164 1   
   166  163  168 1   
   167  164  165 1   
   168  164  166 1   
   169  164  167 1   
   170  170  171 1   
   171  170  172 1   
   172  173  174 1   
   173  173  175 1   
   174  176  177 1   
   175  176  178 1   
   176  179  180 1   
   177  179  181 1   
@<TRIPOS>SUBSTRUCTURE
     1 MOL         1 TEMP              0 ****  ****    0 ROOT
