@<TRIPOS>MOLECULE
MOL
  181   177     1     0     0
SMALL
resp


@<TRIPOS>ATOM
      1 C1         -4.1990   -1.0670   -3.0450 c3        1 MOL     -0.377993
      2 C2         -5.3930   -0.3160   -2.4200 c         1 MOL      0.686051
      3 O1         -5.3730    0.1030   -1.2430 o         1 MOL     -0.546565
      4 H1         -3.8690   -0.5400   -3.9410 hc        1 MOL      0.104039
      5 H2         -3.3810   -1.1100   -2.3260 hc        1 MOL      0.104039
      6 H3         -4.5040   -2.0790   -3.3100 hc        1 MOL      0.104039
      7 N1         -6.5090   -0.1750   -3.1740 n         1 MOL     -0.569866
      8 C3         -7.7670    0.4840   -2.7470 c3        1 MOL      0.134405
      9 C4         -8.5070   -0.6080   -1.9930 c         1 MOL      0.676172
     10 O2         -9.0120   -1.6020   -2.5670 o         1 MOL     -0.571288
     11 C5         -8.5520    1.0250   -4.0160 c3        1 MOL     -0.143130
     12 C6         -9.8690    1.5830   -3.5740 c         1 MOL      0.725183
     13 O3        -10.9440    1.1430   -4.0220 o         1 MOL     -0.738658
     14 O4         -9.8100    2.4850   -2.6670 o         1 MOL     -0.738658
     15 H4         -6.4790   -0.7370   -4.0150 hn        1 MOL      0.285018
     16 H5         -7.5030    1.3240   -2.1050 h1        1 MOL      0.033834
     17 H6         -8.6370    0.1140   -4.6230 hc        1 MOL      0.004733
     18 H7         -8.0830    1.8150   -4.6010 hc        1 MOL      0.004733
     19 N2         -8.6940   -0.4730   -0.6540 n         1 MOL     -0.709469
     20 C7         -9.2660   -1.5570    0.2100 c3        1 MOL      0.584378
     21 C8         -8.0990   -2.1040    1.0700 c         1 MOL      0.196145
     22 O5         -8.2620   -2.6640    2.0760 o         1 MOL     -0.486817
     23 C9        -10.4940   -1.0440    0.8970 c3        1 MOL     -0.482638
     24 H8         -8.3770    0.3330   -0.1390 hn        1 MOL      0.328760
     25 H9         -9.7310   -2.3210   -0.4220 h1        1 MOL      0.008990
     26 H10       -10.8940   -1.9000    1.4330 hc        1 MOL      0.117024
     27 H11       -10.3960   -0.1450    1.5120 hc        1 MOL      0.117024
     28 H12       -11.2090   -0.8790    0.0950 hc        1 MOL      0.117024
     29 N3         -6.8240   -1.8520    0.6780 n         1 MOL     -0.330549
     30 C10        -5.4850   -2.2410    1.2260 c3        1 MOL      0.467179
     31 C11        -5.4200   -1.8770    2.7620 c         1 MOL      0.330683
     32 O6         -4.9930   -2.6180    3.6490 o         1 MOL     -0.477644
     33 C12        -5.0240   -3.6890    0.8350 c3        1 MOL     -0.053948
     34 C13        -3.5120   -3.9280    0.7090 c         1 MOL      0.719392
     35 O7         -3.0200   -5.0020    0.3840 o         1 MOL     -0.767694
     36 O8         -2.7010   -3.0150    0.9900 o         1 MOL     -0.767694
     37 H13        -6.7260   -1.2670   -0.1400 hn        1 MOL      0.077604
     38 H14        -4.7600   -1.5790    0.7610 h1        1 MOL     -0.068741
     39 H15        -5.4490   -4.0240   -0.1070 hc        1 MOL     -0.019994
     40 H16        -5.4410   -4.3480    1.5990 hc        1 MOL     -0.019994
     41 N4         -5.7280   -0.6070    3.0310 n         1 MOL     -0.181873
     42 C14        -5.5410    0.0600    4.2960 c3        1 MOL     -0.078777
     43 C15        -4.0970    0.5660    4.5880 c         1 MOL      0.558477
     44 O9         -3.6310    0.3220    5.6810 o         1 MOL     -0.558128
     45 H17        -6.0490   -0.1770    2.1770 hn        1 MOL      0.209736
     46 H18        -5.8530   -0.6340    5.0790 h1        1 MOL      0.051171
     47 H19        -6.2100    0.8900    4.5040 h1        1 MOL      0.051171
     48 N5         -3.4300    1.1140    3.6080 n         1 MOL     -0.400312
     49 C16        -2.1420    1.8700    3.6170 c3        1 MOL      0.232716
     50 C17        -2.3120    3.1840    2.7510 c         1 MOL      0.356229
     51 O10        -3.1080    3.2000    1.8700 o         1 MOL     -0.433670
     52 C18        -0.9350    1.0930    3.0560 c3        1 MOL     -0.078955
     53 C19        -0.5790   -0.1470    3.9240 c         1 MOL      0.488931
     54 N6          0.0620    0.1050    5.0290 n         1 MOL     -0.715871
     55 O11        -0.9720   -1.2540    3.5450 o         1 MOL     -0.461375
     56 H20        -3.9580    1.1750    2.7480 hn        1 MOL      0.207736
     57 H21        -1.8840    2.2170    4.6130 h1        1 MOL     -0.040156
     58 H22        -0.1030    1.7820    3.1910 hc        1 MOL      0.071081
     59 H23        -1.1390    0.6450    2.0840 hc        1 MOL      0.071081
     60 H24         0.2180    1.0560    5.3340 hn        1 MOL      0.348772
     61 H25         0.2510   -0.7510    5.5400 hn        1 MOL      0.348772
     62 N7         -1.4290    4.1060    3.0760 n         1 MOL     -0.349412
     63 C20        -1.4060    5.4320    2.5200 c3        1 MOL     -0.159686
     64 C21        -0.0420    5.8550    1.9090 c         1 MOL      0.545315
     65 O12         1.0290    5.3500    2.2670 o         1 MOL     -0.507347
     66 H26        -0.6220    3.8820    3.6390 hn        1 MOL      0.277716
     67 H27        -1.6240    6.1030    3.3520 h1        1 MOL      0.105613
     68 H28        -2.1050    5.4510    1.6840 h1        1 MOL      0.105613
     69 N8         -0.1710    6.8150    0.9850 n         1 MOL     -0.515888
     70 C22         1.0080    7.3880    0.1630 c3        1 MOL     -0.071923
     71 C23         1.8480    6.4190   -0.6950 c         1 MOL      0.270937
     72 O13         3.0430    6.6970   -0.9510 o         1 MOL     -0.528154
     73 C24         0.6530    8.6610   -0.5970 c3        1 MOL      0.249049
     74 C25        -0.1690    8.5300   -1.8640 c3        1 MOL     -0.034055
     75 O14         0.1980    9.6320    0.3400 oh        1 MOL     -0.607131
     76 H29        -1.1310    7.0860    0.8330 hn        1 MOL      0.287296
     77 H30         1.7090    7.6360    0.9640 h1        1 MOL      0.162320
     78 H31         1.5690    9.1510   -0.9250 h1        1 MOL      0.076906
     79 H32        -0.7410    9.5010    0.5130 ho        1 MOL      0.376956
     80 H33        -0.6930    9.4220   -2.2140 hc        1 MOL      0.006827
     81 H34         0.3740    8.0880   -2.7110 hc        1 MOL      0.006827
     82 H35        -0.8600    7.7300   -1.6130 hc        1 MOL      0.006827
     83 N9          1.1730    5.3760   -1.1230 n         1 MOL     -0.028271
     84 C26         1.9400    4.2130   -1.7750 c3        1 MOL      0.136262
     85 C27         1.6030    2.8950   -1.0120 c         1 MOL      0.222554
     86 O15         0.5500    2.7690   -0.3830 o         1 MOL     -0.427154
     87 C28         1.4900    3.9540   -3.2110 c3        1 MOL      0.078512
     88 C29         0.0010    3.5300   -3.3890 c3        1 MOL     -0.370854
     89 C30         1.7550    5.2530   -3.9840 c3        1 MOL     -0.267612
     90 C31        -1.1620    4.4140   -2.9170 c3        1 MOL      0.120984
     91 H36         0.2110    5.2850   -0.8420 hn        1 MOL      0.225104
     92 H37         3.0130    4.3960   -1.7570 h1        1 MOL      0.060847
     93 H38         2.1780    3.2160   -3.6190 hc        1 MOL      0.028886
     94 H39        -0.1510    2.5860   -2.8630 hc        1 MOL      0.125851
     95 H40        -0.1700    3.4490   -4.4680 hc        1 MOL      0.125851
     96 H41         1.7110    4.9890   -5.0420 hc        1 MOL      0.065471
     97 H42         0.9720    5.9910   -3.8310 hc        1 MOL      0.065471
     98 H43         2.7530    5.6290   -3.7980 hc        1 MOL      0.065471
     99 H44        -2.0760    4.0130   -3.3490 hc        1 MOL     -0.010812
    100 H45        -1.2370    4.3470   -1.8270 hc        1 MOL     -0.010812
    101 H46        -1.1720    5.4490   -3.2620 hc        1 MOL     -0.010812
    102 N10         2.4230    1.8840   -1.0780 n         1 MOL     -0.442705
    103 C32         2.1880    0.5610   -0.4000 c3        1 MOL      0.441577
    104 C33         3.5030    0.0070    0.1530 c         1 MOL      0.446172
    105 O16         3.7670   -1.2080    0.1900 o         1 MOL     -0.465764
    106 C34         1.4200   -0.3730   -1.3010 c3        1 MOL     -0.466146
    107 C35         0.7100   -1.6240   -0.7620 c         1 MOL      0.812995
    108 O17         0.4000   -1.7440    0.4770 o         1 MOL     -0.751527
    109 O18         0.3950   -2.4770   -1.5490 o         1 MOL     -0.751527
    110 H47         3.3290    2.0090   -1.5200 hn        1 MOL      0.249463
    111 H48         1.5480    0.7910    0.4540 h1        1 MOL     -0.039657
    112 H49         1.9790   -0.6470   -2.1890 hc        1 MOL      0.121162
    113 H50         0.5480    0.2160   -1.5850 hc        1 MOL      0.121162
    114 N11         4.3400    0.8900    0.6600 n         1 MOL     -0.492745
    115 C36         5.6340    0.5330    1.0740 c3        1 MOL      0.296121
    116 C37         6.3880   -0.1900   -0.0130 c         1 MOL      0.358455
    117 O19         6.4390    0.2430   -1.1370 o         1 MOL     -0.541857
    118 C38         6.4440    1.8520    1.2950 c3        1 MOL     -0.385532
    119 C39         7.9170    1.7050    1.6620 ca        1 MOL      0.103702
    120 C40         8.3080    1.0000    2.8070 ca        1 MOL     -0.175527
    121 C41         8.9320    2.0720    0.6840 ca        1 MOL     -0.175527
    122 C42         9.6470    0.5870    2.9150 ca        1 MOL     -0.110025
    123 C43        10.2860    1.8420    0.9370 ca        1 MOL     -0.110025
    124 C44        10.6560    1.0090    2.0390 ca        1 MOL     -0.119232
    125 H51         3.9900    1.8290    0.7410 hn        1 MOL      0.284907
    126 H52         5.6670   -0.0630    1.9860 h1        1 MOL     -0.001147
    127 H53         5.9440    2.2640    2.1750 hc        1 MOL      0.134030
    128 H54         6.4000    2.4870    0.4180 hc        1 MOL      0.134030
    129 H55         7.6330    0.7520    3.6120 ha        1 MOL      0.136310
    130 H56         8.6130    2.6530   -0.1610 ha        1 MOL      0.136310
    131 H57         9.9330   -0.0640    3.7290 ha        1 MOL      0.113970
    132 H58        11.0530    2.1890    0.2660 ha        1 MOL      0.113970
    133 H59        11.6640    0.7380    2.2900 ha        1 MOL      0.104700
    134 N12         7.1190   -1.2800    0.3740 n         1 MOL      0.160746
    135 C45         7.9980   -2.0410   -0.5520 c3        1 MOL     -0.229380
    136 C46         7.3240   -2.9120   -1.5700 c         1 MOL      0.460839
    137 O20         7.9380   -3.5970   -2.3940 o         1 MOL     -0.509580
    138 C47         8.8870   -2.8840    0.3390 c3        1 MOL      0.008227
    139 C48         7.8790   -3.2320    1.4190 c3        1 MOL      0.053142
    140 C49         7.1310   -1.9200    1.7010 c3        1 MOL     -0.058288
    141 H60         8.6780   -1.3260   -1.0320 h1        1 MOL      0.113887
    142 H61         9.3620   -3.7300   -0.1580 hc        1 MOL      0.019809
    143 H62         9.5390   -2.1440    0.8060 hc        1 MOL      0.019809
    144 H63         7.1030   -3.9320    1.1120 hc        1 MOL     -0.003346
    145 H64         8.3820   -3.6050    2.3080 hc        1 MOL     -0.003346
    146 H65         6.1150   -2.0370    2.0910 h1        1 MOL      0.015963
    147 H66         7.7540   -1.3480    2.3920 h1        1 MOL      0.015963
    148 N13         5.9760   -2.8550   -1.7270 n         1 MOL     -0.270257
    149 C50         5.1670   -3.7470   -2.6180 c3        1 MOL     -0.007443
    150 C51         4.8660   -2.9810   -3.9590 c         1 MOL      0.334461
    151 O21         4.9880   -3.5420   -5.0680 o         1 MOL     -0.542764
    152 C52         3.7300   -3.9350   -2.0410 c3        1 MOL      0.302291
    153 C53         3.7860   -4.8740   -0.8420 c3        1 MOL     -0.274931
    154 C54         2.3690   -5.0240   -0.3700 c         1 MOL      0.678920
    155 O22         2.0980   -4.5940    0.7920 o         1 MOL     -0.720771
    156 O23         1.4890   -5.5710   -1.0830 o         1 MOL     -0.720771
    157 H67         5.4330   -2.2940   -1.0800 hn        1 MOL      0.169811
    158 H68         5.6910   -4.6640   -2.8980 h1        1 MOL      0.091659
    159 H69         3.1560   -4.3700   -2.8540 hc        1 MOL     -0.036227
    160 H70         3.3300   -2.9710   -1.7190 hc        1 MOL     -0.036227
    161 H71         4.3680   -4.4590   -0.0240 hc        1 MOL      0.039008
    162 H72         4.1600   -5.8310   -1.2100 hc        1 MOL      0.039008
    163 N14         4.7310   -1.6790   -3.9220 n         1 MOL     -0.148187
    164 C55         4.5790   -0.7330   -5.0660 c3        1 MOL     -0.156729
    165 H73         4.5700   -1.2930   -6.0010 h1        1 MOL      0.081419
    166 H74         3.6430   -0.1840   -4.9630 h1        1 MOL      0.081419
    167 H75         5.4130   -0.0310   -5.0710 h1        1 MOL      0.081419
    168 H76         4.8160   -1.3410   -2.9730 hn        1 MOL      0.173849
    169 Ca1        -0.5080   -4.3650    0.3210 Ca        1 MOL      1.769298
    170 O24        -0.3900   -6.3870    2.0370 oh        1 MOL     -0.784954
    171 H77        -0.5330   -6.4020    2.9900 ho        1 MOL      0.383202
    172 H78         0.2680   -7.0670    1.8870 ho        1 MOL      0.383202
    173 O25        -0.8380   -7.1030   -0.7840 oh        1 MOL     -0.784954
    174 H79        -0.7620   -7.7830   -0.1200 ho        1 MOL      0.383202
    175 H80        -1.7000   -7.2470   -1.1720 ho        1 MOL      0.383202
    176 O26        -1.4620   -4.4500   -2.1740 oh        1 MOL     -0.784954
    177 H81        -1.0150   -3.6550   -2.4720 ho        1 MOL      0.383202
    178 H82        -1.7840   -4.8490   -2.9840 ho        1 MOL      0.383202
    179 O27         0.3750   -3.4410    2.7050 oh        1 MOL     -0.784954
    180 H83         1.1400   -2.9000    2.5240 ho        1 MOL      0.383202
    181 H84        -0.2840   -2.8190    3.0260 ho        1 MOL      0.383202
@<TRIPOS>BOND
     1    1    2 1   
     2    1    4 1   
     3    1    5 1   
     4    1    6 1   
     5    2    3 2   
     6    2    7 1   
     7    7    8 1   
     8    7   15 1   
     9    8    9 1   
    10    8   11 1   
    11    8   16 1   
    12    9   10 2   
    13    9   19 1   
    14   11   12 1   
    15   11   17 1   
    16   11   18 1   
    17   12   13 1   
    18   12   14 1   
    19   19   20 1   
    20   19   24 1   
    21   20   21 1   
    22   20   23 1   
    23   20   25 1   
    24   21   22 2   
    25   21   29 1   
    26   23   26 1   
    27   23   27 1   
    28   23   28 1   
    29   29   30 1   
    30   29   37 1   
    31   30   31 1   
    32   30   33 1   
    33   30   38 1   
    34   31   32 2   
    35   31   41 1   
    36   33   34 1   
    37   33   39 1   
    38   33   40 1   
    39   34   35 1   
    40   34   36 1   
    41   41   42 1   
    42   41   45 1   
    43   42   43 1   
    44   42   46 1   
    45   42   47 1   
    46   43   44 2   
    47   43   48 1   
    48   48   49 1   
    49   48   56 1   
    50   49   50 1   
    51   49   52 1   
    52   49   57 1   
    53   50   51 2   
    54   50   62 1   
    55   52   53 1   
    56   52   58 1   
    57   52   59 1   
    58   53   54 1   
    59   53   55 2   
    60   54   60 1   
    61   54   61 1   
    62   62   63 1   
    63   62   66 1   
    64   63   64 1   
    65   63   67 1   
    66   63   68 1   
    67   64   65 2   
    68   64   69 1   
    69   69   70 1   
    70   69   76 1   
    71   70   71 1   
    72   70   73 1   
    73   70   77 1   
    74   71   72 2   
    75   71   83 1   
    76   73   74 1   
    77   73   75 1   
    78   73   78 1   
    79   74   80 1   
    80   74   81 1   
    81   74   82 1   
    82   75   79 1   
    83   83   84 1   
    84   83   91 1   
    85   84   85 1   
    86   84   87 1   
    87   84   92 1   
    88   85   86 2   
    89   85  102 1   
    90   87   88 1   
    91   87   89 1   
    92   87   93 1   
    93   88   90 1   
    94   88   94 1   
    95   88   95 1   
    96   89   96 1   
    97   89   97 1   
    98   89   98 1   
    99   90   99 1   
   100   90  100 1   
   101   90  101 1   
   102  102  103 1   
   103  102  110 1   
   104  103  104 1   
   105  103  106 1   
   106  103  111 1   
   107  104  105 2   
   108  104  114 1   
   109  106  107 1   
   110  106  112 1   
   111  106  113 1   
   112  107  108 1   
   113  107  109 1   
   114  114  115 1   
   115  114  125 1   
   116  115  116 1   
   117  115  118 1   
   118  115  126 1   
   119  116  117 2   
   120  116  134 1   
   121  118  119 1   
   122  118  127 1   
   123  118  128 1   
   124  119  120 ar  
   125  119  121 ar  
   126  120  122 ar  
   127  120  129 1   
   128  121  123 ar  
   129  121  130 1   
   130  122  124 ar  
   131  122  131 1   
   132  123  124 ar  
   133  123  132 1   
   134  124  133 1   
   135  134  135 1   
   136  134  140 1   
   137  135  136 1   
   138  135  138 1   
   139  135  141 1   
   140  136  137 2   
   141  136  148 1   
   142  138  139 1   
   143  138  142 1   
   144  138  143 1   
   145  139  140 1   
   146  139  144 1   
   147  139  145 1   
   148  140  146 1   
   149  140  147 1   
   150  148  149 1   
   151  148  157 1   
   152  149  150 1   
   153  149  152 1   
   154  149  158 1   
   155  150  151 2   
   156  150  163 1   
   157  152  153 1   
   158  152  159 1   
   159  152  160 1   
   160  153  154 1   
   161  153  161 1   
   162  153  162 1   
   163  154  155 1   
   164  154  156 1   
   165  163  164 1   
   166  163  168 1   
   167  164  165 1   
   168  164  166 1   
   169  164  167 1   
   170  170  171 1   
   171  170  172 1   
   172  173  174 1   
   173  173  175 1   
   174  176  177 1   
   175  176  178 1   
   176  179  180 1   
   177  179  181 1   
@<TRIPOS>SUBSTRUCTURE
     1 MOL         1 TEMP              0 ****  ****    0 ROOT
