@<TRIPOS>MOLECULE
MOL
  201   193     1     0     0
SMALL
resp


@<TRIPOS>ATOM
      1 C1          1.6490    2.8910    1.8140 c3        1 MOL     -0.041878
      2 C2          0.5860    3.6240    0.8790 c         1 MOL      0.549487
      3 O1         -0.5110    3.0470    0.6670 o         1 MOL     -0.500766
      4 H1          2.3740    2.3630    1.1940 hc        1 MOL     -0.012968
      5 H2          2.1650    3.6300    2.4260 hc        1 MOL     -0.012968
      6 H3          1.1350    2.1780    2.4590 hc        1 MOL     -0.012968
      7 N1          0.8220    4.7620    0.3660 n         1 MOL     -0.544043
      8 C3         -0.1180    5.5120   -0.5600 c3        1 MOL      0.196104
      9 C4         -1.6800    5.3930   -0.1270 c         1 MOL      0.588929
     10 O2         -2.4890    5.1500   -0.9880 o         1 MOL     -0.374131
     11 C5          0.1540    5.1030   -2.0420 c3        1 MOL     -0.422256
     12 C6         -0.6550    6.0240   -3.0110 c         1 MOL      0.633922
     13 O3         -0.7310    5.5420   -4.1610 o         1 MOL     -0.607050
     14 O4         -1.2390    7.0480   -2.6590 o         1 MOL     -0.607050
     15 H4          1.7180    5.2000    0.5400 hn        1 MOL      0.306135
     16 H5          0.1320    6.5620   -0.4240 h1        1 MOL      0.008358
     17 H6          0.0480    4.0350   -2.2440 hc        1 MOL      0.123992
     18 H7          1.1930    5.3680   -2.2470 hc        1 MOL      0.123992
     19 N2         -2.0190    5.4620    1.1710 n         1 MOL     -0.625617
     20 C7         -3.4440    5.1620    1.6330 c3        1 MOL      0.043434
     21 C8         -4.4910    6.2550    1.2580 c         1 MOL      0.508894
     22 O5         -4.1120    7.3930    1.1500 o         1 MOL     -0.557272
     23 C9         -3.5350    4.7030    3.1140 c3        1 MOL      0.257162
     24 C10        -2.7990    5.7150    4.0250 c3        1 MOL      0.023525
     25 C11        -2.9180    3.3530    3.4440 c3        1 MOL     -0.357151
     26 C12        -3.4300    5.8060    5.4370 c3        1 MOL     -0.078542
     27 H8         -1.2930    5.4400    1.8820 hn        1 MOL      0.267260
     28 H9         -3.7880    4.3120    1.0560 h1        1 MOL      0.113061
     29 H10        -4.5820    4.7980    3.4270 hc        1 MOL      0.039984
     30 H11        -2.7900    6.7220    3.6070 hc        1 MOL     -0.017906
     31 H12        -1.7660    5.3660    4.0540 hc        1 MOL     -0.017906
     32 H13        -1.8560    3.3530    3.1890 hc        1 MOL      0.088835
     33 H14        -3.0470    3.2280    4.5180 hc        1 MOL      0.088835
     34 H15        -3.4700    2.5900    2.8930 hc        1 MOL      0.088835
     35 H16        -3.3170    4.8770    5.9950 hc        1 MOL     -0.002654
     36 H17        -2.8700    6.5300    6.0240 hc        1 MOL     -0.002654
     37 H18        -4.5010    6.0260    5.3840 hc        1 MOL     -0.002654
     38 N3         -5.7610    5.9630    1.0400 n         1 MOL     -0.558784
     39 C13        -6.5410    4.6900    1.0000 c3        1 MOL      0.105265
     40 C14        -7.2210    4.6030   -0.3980 c         1 MOL      0.484415
     41 O6         -8.3220    5.1460   -0.5970 o         1 MOL     -0.524531
     42 C15        -7.5710    4.7940    2.1340 c3        1 MOL     -0.400144
     43 C16        -8.3420    3.4970    2.3380 c         1 MOL      0.832386
     44 O7         -9.1070    3.4230    3.3180 o         1 MOL     -0.761157
     45 O8         -8.0860    2.5150    1.6030 o         1 MOL     -0.761157
     46 H19        -6.3360    6.7920    0.9710 hn        1 MOL      0.330731
     47 H20        -5.9640    3.7630    1.0180 h1        1 MOL      0.038506
     48 H21        -8.2630    5.5800    1.8230 hc        1 MOL      0.084572
     49 H22        -7.0450    4.9910    3.0600 hc        1 MOL      0.084572
     50 N4         -6.5360    3.9980   -1.3980 n         1 MOL     -0.193752
     51 C17        -7.0160    3.8590   -2.7760 c3        1 MOL     -0.254712
     52 C18        -6.9650    2.4110   -3.4600 c         1 MOL      0.660185
     53 O9         -7.6040    2.1240   -4.5030 o         1 MOL     -0.588534
     54 H23        -5.5870    3.8690   -1.0820 hn        1 MOL      0.193270
     55 H24        -6.3810    4.4960   -3.3900 h1        1 MOL      0.114155
     56 H25        -8.0780    4.0860   -2.8460 h1        1 MOL      0.114155
     57 N5         -6.2120    1.4760   -2.8100 n         1 MOL     -0.539196
     58 C19        -5.9720    0.1190   -3.3740 c3        1 MOL      0.144582
     59 C20        -6.9010   -0.8990   -2.7300 c         1 MOL      0.318246
     60 O10        -7.3730   -1.8440   -3.3620 o         1 MOL     -0.532351
     61 C21        -4.5150   -0.3850   -3.2910 c3        1 MOL     -0.102618
     62 C22        -3.8620   -0.5130   -1.9220 c         1 MOL      0.721214
     63 O11        -3.4160    0.5630   -1.4750 o         1 MOL     -0.646590
     64 O12        -3.9110   -1.6050   -1.2610 o         1 MOL     -0.646590
     65 H26        -5.5800    1.8460   -2.1170 hn        1 MOL      0.299965
     66 H27        -6.1390    0.1230   -4.4550 h1        1 MOL      0.076097
     67 H28        -3.8410    0.2930   -3.8330 hc        1 MOL      0.019175
     68 H29        -4.4560   -1.3330   -3.8380 hc        1 MOL      0.019175
     69 N6         -7.2030   -0.7940   -1.4460 n         1 MOL      0.001504
     70 C23        -7.9030   -1.7680   -0.5630 c3        1 MOL     -0.348475
     71 C24        -7.1860   -3.1190   -0.3500 c         1 MOL      0.594286
     72 O13        -7.7580   -3.9720    0.2900 o         1 MOL     -0.629271
     73 H30        -7.0220    0.1050   -1.0130 hn        1 MOL      0.161671
     74 H31        -8.9160   -1.9050   -0.9340 h1        1 MOL      0.146412
     75 H32        -7.9430   -1.4030    0.4590 h1        1 MOL      0.146412
     76 N7         -6.0490   -3.3750   -0.9810 n         1 MOL     -0.013349
     77 C25        -5.1320   -4.5040   -1.1250 c3        1 MOL      0.053309
     78 C26        -4.7880   -5.2340    0.1530 c         1 MOL      0.548145
     79 O14        -4.5340   -6.4620    0.0780 o         1 MOL     -0.546071
     80 C27        -5.7250   -5.4270   -2.2860 c3        1 MOL     -0.008372
     81 C28        -5.9100   -4.5840   -3.5810 c3        1 MOL      0.017769
     82 C29        -5.5370   -5.2530   -4.8810 c         1 MOL      0.541821
     83 N8         -5.9060   -4.5430   -5.9660 n         1 MOL     -0.704131
     84 O15        -4.8850   -6.2710   -4.9460 o         1 MOL     -0.540006
     85 H33        -5.5630   -2.4990   -1.0950 hn        1 MOL     -0.077746
     86 H34        -4.1460   -4.1320   -1.4320 h1        1 MOL      0.064680
     87 H35        -6.6710   -5.7690   -1.8620 hc        1 MOL     -0.006658
     88 H36        -5.1000   -6.3170   -2.3360 hc        1 MOL     -0.006658
     89 H37        -5.4210   -3.6110   -3.5470 hc        1 MOL     -0.002879
     90 H38        -6.9640   -4.3130   -3.5810 hc        1 MOL     -0.002879
     91 H39        -6.6640   -3.8670   -5.9260 hn        1 MOL      0.309356
     92 H40        -5.7530   -5.0360   -6.8280 hn        1 MOL      0.309356
     93 N9         -4.7150   -4.5190    1.2780 n         1 MOL     -0.478464
     94 C30        -4.3430   -5.1780    2.5640 c3        1 MOL      0.027108
     95 C31        -2.9730   -4.8050    3.0680 c         1 MOL      0.525933
     96 O16        -2.3240   -5.5820    3.7540 o         1 MOL     -0.591014
     97 C32        -5.3460   -4.9010    3.7230 c3        1 MOL      0.184797
     98 C33        -5.6740   -3.4110    3.8920 c3        1 MOL     -0.279890
     99 C34        -6.6620   -5.6760    3.6770 c3        1 MOL     -0.279890
    100 H41        -4.9640   -3.5350    1.2810 hn        1 MOL      0.341316
    101 H42        -4.3840   -6.2540    2.4150 h1        1 MOL      0.078321
    102 H43        -4.9260   -5.2130    4.6740 hc        1 MOL     -0.017525
    103 H44        -4.7470   -2.8240    3.9760 hc        1 MOL      0.067224
    104 H45        -6.2170   -3.1020    2.9970 hc        1 MOL      0.067224
    105 H46        -6.2300   -3.2830    4.8200 hc        1 MOL      0.067224
    106 H47        -7.3220   -5.4360    2.8380 hc        1 MOL      0.067224
    107 H48        -6.5380   -6.7600    3.5830 hc        1 MOL      0.067224
    108 H49        -7.1980   -5.5160    4.6050 hc        1 MOL      0.067224
    109 N10        -2.4700   -3.6160    2.6490 n         1 MOL     -0.441665
    110 C35        -1.1250   -3.0650    3.0580 c3        1 MOL      0.354309
    111 C36        -0.4680   -2.5490    1.7880 c         1 MOL      0.468548
    112 O17        -1.1300   -2.2310    0.7780 o         1 MOL     -0.499964
    113 C37        -1.2840   -2.0020    4.1730 c3        1 MOL     -0.196840
    114 C38         0.0020   -1.7850    5.0110 c         1 MOL      0.610289
    115 N11        -0.0600   -1.9970    6.3090 n         1 MOL     -0.796419
    116 O18         1.0120   -1.5270    4.4190 o         1 MOL     -0.543009
    117 H50        -2.9880   -3.0430    1.9930 hn        1 MOL      0.222843
    118 H51        -0.4610   -3.8000    3.5070 h1        1 MOL      0.011033
    119 H52        -2.1100   -2.2320    4.8560 hc        1 MOL      0.052505
    120 H53        -1.5310   -1.0350    3.7300 hc        1 MOL      0.052505
    121 H54        -0.9540   -2.2990    6.6570 hn        1 MOL      0.371571
    122 H55         0.8010   -1.8270    6.8100 hn        1 MOL      0.371571
    123 N12         0.8440   -2.5400    1.7220 n         1 MOL     -0.638702
    124 C39         1.6390   -2.6570    0.5000 c3        1 MOL      0.418914
    125 C40         2.9020   -3.3650    0.8790 c         1 MOL      0.548430
    126 O19         3.1990   -3.5070    2.0410 o         1 MOL     -0.528183
    127 C41         2.0050   -1.2950   -0.0710 c3        1 MOL     -0.064288
    128 C42         2.5190   -1.3540   -1.5270 ca        1 MOL     -0.011202
    129 C43         3.8150   -0.9850   -1.8950 ca        1 MOL     -0.180913
    130 C44         1.6310   -1.7570   -2.5280 ca        1 MOL     -0.180913
    131 C45         4.3260   -1.1760   -3.1810 ca        1 MOL     -0.234284
    132 C46         2.1320   -1.9610   -3.8830 ca        1 MOL     -0.234284
    133 C47         3.4170   -1.5640   -4.2580 ca        1 MOL      0.335976
    134 O20         3.9850   -1.6740   -5.5180 oh        1 MOL     -0.517567
    135 H56         1.3840   -2.6580    2.5620 hn        1 MOL      0.284411
    136 H57         1.0920   -3.2330   -0.2450 h1        1 MOL      0.000142
    137 H58         2.8130   -0.8910    0.5340 hc        1 MOL      0.076177
    138 H59         1.1820   -0.5870   -0.0150 hc        1 MOL      0.076177
    139 H60         4.5250   -0.6120   -1.1740 ha        1 MOL      0.177619
    140 H61         0.6100   -2.0470   -2.2990 ha        1 MOL      0.177619
    141 H62         5.3170   -0.9440   -3.5430 ha        1 MOL      0.138496
    142 H63         1.4580   -2.2690   -4.6790 ha        1 MOL      0.138496
    143 H64         4.9000   -1.4150   -5.6090 ho        1 MOL      0.365369
    144 N13         3.7350   -3.7980   -0.0950 n         1 MOL     -0.865356
    145 C48         5.0760   -4.3480    0.1370 c3        1 MOL      0.454842
    146 C49         6.0760   -3.7510   -0.9040 c         1 MOL      0.299436
    147 O21         6.1780   -4.0740   -2.0560 o         1 MOL     -0.469829
    148 C50         4.9610   -5.8990    0.1260 c3        1 MOL     -0.047252
    149 C51         6.2960   -6.5770    0.3980 c3        1 MOL     -0.297189
    150 C52         7.3020   -6.7150   -0.7260 c         1 MOL      0.756478
    151 O22         6.9800   -7.1890   -1.8650 o         1 MOL     -0.654247
    152 O23         8.4560   -6.4000   -0.5090 o         1 MOL     -0.654247
    153 H65         3.4460   -3.7050   -1.0580 hn        1 MOL      0.404046
    154 H66         5.3350   -4.1640    1.1750 h1        1 MOL      0.034481
    155 H67         4.6180   -6.2500   -0.8430 hc        1 MOL      0.037118
    156 H68         4.1870   -6.1810    0.8380 hc        1 MOL      0.037118
    157 H69         6.1010   -7.6170    0.6150 hc        1 MOL      0.052656
    158 H70         6.7800   -6.1830    1.2890 hc        1 MOL      0.052656
    159 N14         6.8670   -2.7950   -0.4880 n         1 MOL     -0.034801
    160 C53         6.5280   -1.9830    0.6840 c3        1 MOL     -1.016774
    161 C54         7.0040   -2.6380    1.9880 c         1 MOL      0.829792
    162 O24         8.0210   -3.3310    1.9280 o         1 MOL     -0.530252
    163 C55         7.1950   -0.5910    0.5850 c3        1 MOL      0.242692
    164 C56         8.5960   -0.5270   -0.1280 c3        1 MOL     -0.754519
    165 C57         9.1010    0.8680   -0.4620 c         1 MOL      0.989331
    166 O25         8.8870    1.3620   -1.6170 o         1 MOL     -0.764185
    167 O26         9.6030    1.5680    0.4310 o         1 MOL     -0.764185
    168 H71         7.6190   -2.4090   -1.0380 hn        1 MOL      0.288865
    169 H72         5.4750   -1.8450    0.9280 h1        1 MOL      0.266409
    170 H73         7.2160   -0.1920    1.5910 hc        1 MOL      0.036555
    171 H74         6.5640    0.1210    0.0360 hc        1 MOL      0.036555
    172 H75         8.5810   -1.1450   -1.0180 hc        1 MOL      0.205725
    173 H76         9.3310   -0.9740    0.5450 hc        1 MOL      0.205725
    174 N15         6.4140   -2.3140    3.1460 n         1 MOL     -0.453260
    175 C58         6.5260   -2.9500    4.4890 c3        1 MOL     -0.185399
    176 H77         7.5670   -2.9310    4.8140 h1        1 MOL      0.100067
    177 H78         5.9130   -2.4020    5.2040 h1        1 MOL      0.100067
    178 H79         6.1830   -3.9830    4.4330 h1        1 MOL      0.100067
    179 H80         5.5900   -1.7450    3.0490 hn        1 MOL      0.306565
    180 Ca1         8.8880    3.9020   -0.6290 Ca        1 MOL      1.786754
    181 O27        10.4230    6.0250   -1.0440 oh        1 MOL     -0.845202
    182 H81        10.6730    6.9400   -0.9500 ho        1 MOL      0.378144
    183 H82        10.6640    5.8040   -1.9410 ho        1 MOL      0.378144
    184 O28         9.4140    4.0200   -3.2220 oh        1 MOL     -0.845202
    185 H83        10.2140    3.9980   -3.7590 ho        1 MOL      0.378144
    186 H84         8.7000    3.8910   -3.8450 ho        1 MOL      0.378144
    187 O29         7.8190    6.0920    0.4660 oh        1 MOL     -0.845202
    188 H85         6.9980    6.5680    0.5240 ho        1 MOL      0.378144
    189 H86         8.3420    6.4100    1.2020 ho        1 MOL      0.378144
    190 O30         7.0540    2.8920    1.1840 oh        1 MOL     -0.845202
    191 H87         6.1050    2.8330    1.3040 ho        1 MOL      0.378144
    192 H88         7.4050    2.9940    2.0670 ho        1 MOL      0.378144
    193 O31         6.5130    4.6530   -1.6530 oh        1 MOL     -0.845202
    194 H89         6.2370    5.5220   -1.9490 ho        1 MOL      0.378144
    195 H90         5.9830    4.0500   -2.1750 ho        1 MOL      0.378144
    196 O32        10.1160    3.9400    1.8920 oh        1 MOL     -0.845202
    197 H91        10.3860    3.0290    1.7980 ho        1 MOL      0.378144
    198 H92         9.4580    3.9330    2.5830 ho        1 MOL      0.378144
    199 O33        11.4570    3.2560   -1.1790 oh        1 MOL     -0.845202
    200 H93        11.9190    2.5120   -0.7870 ho        1 MOL      0.378144
    201 H94        12.1600    3.8670   -1.4120 ho        1 MOL      0.378144
@<TRIPOS>BOND
     1    1    2 1   
     2    1    4 1   
     3    1    5 1   
     4    1    6 1   
     5    2    3 2   
     6    2    7 1   
     7    7    8 1   
     8    7   15 1   
     9    8    9 1   
    10    8   11 1   
    11    8   16 1   
    12    9   10 2   
    13    9   19 1   
    14   11   12 1   
    15   11   17 1   
    16   11   18 1   
    17   12   13 1   
    18   12   14 1   
    19   19   20 1   
    20   19   27 1   
    21   20   21 1   
    22   20   23 1   
    23   20   28 1   
    24   21   22 2   
    25   21   38 1   
    26   23   24 1   
    27   23   25 1   
    28   23   29 1   
    29   24   26 1   
    30   24   30 1   
    31   24   31 1   
    32   25   32 1   
    33   25   33 1   
    34   25   34 1   
    35   26   35 1   
    36   26   36 1   
    37   26   37 1   
    38   38   39 1   
    39   38   46 1   
    40   39   40 1   
    41   39   42 1   
    42   39   47 1   
    43   40   41 2   
    44   40   50 1   
    45   42   43 1   
    46   42   48 1   
    47   42   49 1   
    48   43   44 1   
    49   43   45 1   
    50   50   51 1   
    51   50   54 1   
    52   51   52 1   
    53   51   55 1   
    54   51   56 1   
    55   52   53 2   
    56   52   57 1   
    57   57   58 1   
    58   57   65 1   
    59   58   59 1   
    60   58   61 1   
    61   58   66 1   
    62   59   60 2   
    63   59   69 1   
    64   61   62 1   
    65   61   67 1   
    66   61   68 1   
    67   62   63 1   
    68   62   64 1   
    69   69   70 1   
    70   69   73 1   
    71   70   71 1   
    72   70   74 1   
    73   70   75 1   
    74   71   72 2   
    75   71   76 1   
    76   76   77 1   
    77   76   85 1   
    78   77   78 1   
    79   77   80 1   
    80   77   86 1   
    81   78   79 2   
    82   78   93 1   
    83   80   81 1   
    84   80   87 1   
    85   80   88 1   
    86   81   82 1   
    87   81   89 1   
    88   81   90 1   
    89   82   83 1   
    90   82   84 2   
    91   83   91 1   
    92   83   92 1   
    93   93   94 1   
    94   93  100 1   
    95   94   95 1   
    96   94   97 1   
    97   94  101 1   
    98   95   96 2   
    99   95  109 1   
   100   97   98 1   
   101   97   99 1   
   102   97  102 1   
   103   98  103 1   
   104   98  104 1   
   105   98  105 1   
   106   99  106 1   
   107   99  107 1   
   108   99  108 1   
   109  109  110 1   
   110  109  117 1   
   111  110  111 1   
   112  110  113 1   
   113  110  118 1   
   114  111  112 2   
   115  111  123 1   
   116  113  114 1   
   117  113  119 1   
   118  113  120 1   
   119  114  115 1   
   120  114  116 2   
   121  115  121 1   
   122  115  122 1   
   123  123  124 1   
   124  123  135 1   
   125  124  125 1   
   126  124  127 1   
   127  124  136 1   
   128  125  126 2   
   129  125  144 1   
   130  127  128 1   
   131  127  137 1   
   132  127  138 1   
   133  128  129 ar  
   134  128  130 ar  
   135  129  131 ar  
   136  129  139 1   
   137  130  132 ar  
   138  130  140 1   
   139  131  133 ar  
   140  131  141 1   
   141  132  133 ar  
   142  132  142 1   
   143  133  134 1   
   144  134  143 1   
   145  144  145 1   
   146  144  153 1   
   147  145  146 1   
   148  145  148 1   
   149  145  154 1   
   150  146  147 2   
   151  146  159 1   
   152  148  149 1   
   153  148  155 1   
   154  148  156 1   
   155  149  150 1   
   156  149  157 1   
   157  149  158 1   
   158  150  151 1   
   159  150  152 1   
   160  159  160 1   
   161  159  168 1   
   162  160  161 1   
   163  160  163 1   
   164  160  169 1   
   165  161  162 2   
   166  161  174 1   
   167  163  164 1   
   168  163  170 1   
   169  163  171 1   
   170  164  165 1   
   171  164  172 1   
   172  164  173 1   
   173  165  166 1   
   174  165  167 1   
   175  174  175 1   
   176  174  179 1   
   177  175  176 1   
   178  175  177 1   
   179  175  178 1   
   180  181  182 1   
   181  181  183 1   
   182  184  185 1   
   183  184  186 1   
   184  187  188 1   
   185  187  189 1   
   186  190  191 1   
   187  190  192 1   
   188  193  194 1   
   189  193  195 1   
   190  196  197 1   
   191  196  198 1   
   192  199  200 1   
   193  199  201 1   
@<TRIPOS>SUBSTRUCTURE
     1 MOL         1 TEMP              0 ****  ****    0 ROOT
