@<TRIPOS>MOLECULE
MOL
  186   183     1     0     0
SMALL
resp


@<TRIPOS>ATOM
      1 C1         11.9300    4.5110   -3.8910 c3        1 MOL     -0.343314
      2 C2         11.6300    3.6140   -2.7120 c         1 MOL      0.571614
      3 O1         11.9210    2.4350   -2.7400 o         1 MOL     -0.570803
      4 H1         11.9710    3.9120   -4.8000 hc        1 MOL      0.090758
      5 H2         11.1470    5.2620   -3.9860 hc        1 MOL      0.090758
      6 H3         12.8900    5.0040   -3.7380 hc        1 MOL      0.090758
      7 N1         11.2030    4.2130   -1.6120 n         1 MOL     -0.170339
      8 C3         10.7320    3.6130   -0.4190 c3        1 MOL     -0.594917
      9 C4          9.4040    2.8880   -0.6670 c         1 MOL      0.705249
     10 O2          8.3040    3.4370   -0.9080 o         1 MOL     -0.717664
     11 C5         10.5210    4.7720    0.5990 c3        1 MOL     -0.072054
     12 C6          9.5700    5.8900    0.0830 c         1 MOL      0.694900
     13 O3          8.3630    5.8470    0.3600 o         1 MOL     -0.718113
     14 O4         10.1430    6.9050   -0.4310 o         1 MOL     -0.718113
     15 H4         11.0650    5.2170   -1.6830 hn        1 MOL      0.247016
     16 H5         11.4630    2.8780   -0.0900 h1        1 MOL      0.236300
     17 H6         11.4940    5.1480    0.9190 hc        1 MOL      0.111448
     18 H7          9.9000    4.4310    1.4320 hc        1 MOL      0.111448
     19 N2          9.4950    1.5380   -0.4680 n         1 MOL     -0.296157
     20 C7          8.4700    0.4860   -0.6530 c3        1 MOL     -0.056709
     21 C8          7.8320    0.1390    0.7130 c         1 MOL      0.662298
     22 O5          8.4130   -0.1520    1.7560 o         1 MOL     -0.559715
     23 C9          9.0680   -0.7760   -1.3780 c3        1 MOL     -0.125221
     24 C10         8.1330   -1.9290   -1.8170 c3        1 MOL     -0.080959
     25 C11         7.2170   -1.3610   -2.9920 c3        1 MOL     -0.197083
     26 C12         6.2280   -2.3770   -3.5870 c3        1 MOL      0.098019
     27 N3          5.2250   -1.7600   -4.4920 n4        1 MOL     -0.215932
     28 H8         10.3900    1.2120   -0.1300 hn        1 MOL      0.228153
     29 H9          7.6940    0.9050   -1.2850 h1        1 MOL      0.152594
     30 H10         9.8710   -1.1990   -0.7830 hc        1 MOL      0.075023
     31 H11         9.4810   -0.3820   -2.3170 hc        1 MOL      0.075023
     32 H12         7.6580   -2.2420   -0.8880 hc        1 MOL      0.081363
     33 H13         8.6900   -2.7880   -2.1970 hc        1 MOL      0.081363
     34 H14         7.8110   -1.0850   -3.8640 hc        1 MOL      0.049004
     35 H15         6.8730   -0.3940   -2.6260 hc        1 MOL      0.049004
     36 H16         5.6870   -2.8680   -2.7780 hx        1 MOL      0.069513
     37 H17         6.7760   -3.1550   -4.1170 hx        1 MOL      0.069513
     38 H18         4.6790   -1.0790   -3.9820 hn        1 MOL      0.259339
     39 H19         5.7310   -1.1990   -5.1610 hn        1 MOL      0.259339
     40 H20         4.6390   -2.3230   -5.0920 hn        1 MOL      0.259339
     41 N4          6.5360    0.3110    0.6670 n         1 MOL     -0.380456
     42 C13         5.5930    0.2460    1.7830 c3        1 MOL      0.011328
     43 C14         4.1850    0.0070    1.1680 c         1 MOL      0.345938
     44 O6          3.8930    0.4910    0.0940 o         1 MOL     -0.527785
     45 C15         5.7130    1.5670    2.6000 c3        1 MOL     -0.032032
     46 C16         5.7510    2.8170    1.8010 c         1 MOL      0.860109
     47 O7          6.7670    3.4920    1.7460 o         1 MOL     -0.838337
     48 O8          4.8060    3.2290    1.1430 o         1 MOL     -0.838337
     49 H21         6.2070    0.5900   -0.2430 hn        1 MOL      0.214036
     50 H22         5.8000   -0.6230    2.4040 h1        1 MOL      0.105913
     51 H23         6.6440    1.4550    3.1570 hc        1 MOL      0.044640
     52 H24         4.9380    1.6070    3.3720 hc        1 MOL      0.044640
     53 N5          3.1950   -0.5430    1.8380 n         1 MOL     -0.172613
     54 C17         3.2840   -1.3670    2.9970 c3        1 MOL     -0.253293
     55 C18         3.9260   -2.7250    2.7440 c         1 MOL      0.723395
     56 O9          4.7230   -2.8480    1.7590 o         1 MOL     -0.593010
     57 H25         2.3520   -0.4860    1.2870 hn        1 MOL      0.241805
     58 H26         2.3160   -1.5580    3.4660 h1        1 MOL      0.107598
     59 H27         3.8900   -0.8260    3.7200 h1        1 MOL      0.107598
     60 N6          3.6150   -3.7720    3.4740 n         1 MOL     -0.579970
     61 C19         4.0670   -5.1140    3.1020 c3        1 MOL     -0.004964
     62 C20         3.0590   -5.7640    2.0460 c         1 MOL      0.477481
     63 O10         1.8520   -5.9370    2.3140 o         1 MOL     -0.522843
     64 C21         4.2480   -6.0470    4.2530 c3        1 MOL     -0.149945
     65 C22         5.2800   -5.5780    5.2260 c         1 MOL      0.707484
     66 O11         5.3080   -6.2060    6.2770 o         1 MOL     -0.659094
     67 O12         6.1560   -4.7380    4.9150 o         1 MOL     -0.659094
     68 H28         3.1280   -3.6700    4.3550 hn        1 MOL      0.360283
     69 H29         5.0430   -4.9820    2.6420 h1        1 MOL      0.078089
     70 H30         4.4650   -7.0570    3.9080 hc        1 MOL      0.051162
     71 H31         3.3240   -6.0820    4.8330 hc        1 MOL      0.051162
     72 N7          3.5670   -6.1410    0.8890 n         1 MOL     -0.254149
     73 C23         2.9990   -6.9640   -0.2110 c3        1 MOL     -0.362188
     74 C24         1.8970   -6.1880   -0.9030 c         1 MOL      0.613674
     75 O13         1.3660   -6.7150   -1.8700 o         1 MOL     -0.560245
     76 H32         4.5590   -5.9550    0.8160 hn        1 MOL      0.236053
     77 H33         2.6070   -7.8610    0.2720 h1        1 MOL      0.183313
     78 H34         3.7890   -7.1580   -0.9460 h1        1 MOL      0.183313
     79 N8          1.5430   -4.9130   -0.5680 n         1 MOL     -0.276710
     80 C25         0.5020   -4.1740   -1.3190 c3        1 MOL     -0.217836
     81 C26        -0.1850   -3.1540   -0.4360 c         1 MOL      0.628736
     82 O14         0.3790   -2.5070    0.4670 o         1 MOL     -0.477989
     83 C27         1.2460   -3.4260   -2.4570 c3        1 MOL      0.282185
     84 C28         0.3560   -2.6950   -3.5420 c3        1 MOL     -0.212959
     85 O15         2.3910   -2.7140   -2.0750 oh        1 MOL     -0.537987
     86 H35         2.1020   -4.4820    0.1560 hn        1 MOL      0.180444
     87 H36        -0.2160   -4.9130   -1.6860 h1        1 MOL      0.138660
     88 H37         1.5570   -4.2240   -3.1260 h1        1 MOL      0.003320
     89 H38         2.8070   -3.3390   -1.4810 ho        1 MOL      0.326393
     90 H39        -0.1380   -1.8410   -3.0820 hc        1 MOL      0.054219
     91 H40         0.9610   -2.5140   -4.4310 hc        1 MOL      0.054219
     92 H41        -0.4690   -3.3620   -3.8220 hc        1 MOL      0.054219
     93 N9         -1.5060   -2.9530   -0.6890 n         1 MOL     -0.535382
     94 C29        -2.3340   -1.8300   -0.1460 c3        1 MOL     -0.163543
     95 C30        -3.8260   -2.1090    0.1720 c         1 MOL      0.663723
     96 O16        -4.4590   -1.2360    0.7990 o         1 MOL     -0.567506
     97 C31        -2.1630   -0.7030   -1.1950 c3        1 MOL      0.190840
     98 C32        -2.6820    0.6970   -0.8300 c3        1 MOL      0.000321
     99 C33        -2.7110   -0.9780   -2.5700 c3        1 MOL     -0.321904
    100 C34        -1.8650    1.8170   -1.5880 c3        1 MOL     -0.382481
    101 H42        -1.8850   -3.4570   -1.4770 hn        1 MOL      0.322608
    102 H43        -1.8930   -1.5830    0.8160 h1        1 MOL      0.144836
    103 H44        -1.0890   -0.5460   -1.2760 hc        1 MOL      0.039657
    104 H45        -2.5500    0.8650    0.2460 hc        1 MOL      0.037813
    105 H46        -3.7170    0.7680   -1.1570 hc        1 MOL      0.037813
    106 H47        -3.7880   -0.8010   -2.5970 hc        1 MOL      0.083313
    107 H48        -2.2180   -0.4300   -3.3730 hc        1 MOL      0.083313
    108 H49        -2.4650   -2.0150   -2.8120 hc        1 MOL      0.083313
    109 H50        -0.8670    1.7160   -1.1580 hc        1 MOL      0.097871
    110 H51        -1.9430    1.5100   -2.6270 hc        1 MOL      0.097871
    111 H52        -2.2260    2.8310   -1.3790 hc        1 MOL      0.097871
    112 N10        -4.3950   -3.1770   -0.3900 n         1 MOL     -0.469607
    113 C35        -5.8430   -3.4540   -0.3420 c3        1 MOL     -0.211202
    114 C36        -6.5890   -2.9550   -1.5910 c         1 MOL      0.676561
    115 O17        -6.2850   -3.3060   -2.7510 o         1 MOL     -0.567677
    116 C37        -6.0620   -4.9220    0.0180 c3        1 MOL      0.504054
    117 C38        -5.3500   -5.2900    1.3100 c3        1 MOL     -0.419643
    118 O18        -7.4670   -5.1590    0.1230 oh        1 MOL     -0.654536
    119 H53        -3.7500   -3.8560   -0.7710 hn        1 MOL      0.266079
    120 H54        -6.3120   -2.9870    0.5250 h1        1 MOL      0.124401
    121 H55        -5.6860   -5.6240   -0.7150 h1        1 MOL      0.023553
    122 H56        -7.7220   -4.9020    1.0100 ho        1 MOL      0.388906
    123 H57        -5.5210   -4.4970    2.0390 hc        1 MOL      0.112151
    124 H58        -5.7990   -6.2170    1.6730 hc        1 MOL      0.112151
    125 H59        -4.2980   -5.4380    1.0410 hc        1 MOL      0.112151
    126 N11        -7.7250   -2.2530   -1.4790 n         1 MOL     -0.487889
    127 C39        -8.4420   -1.6360   -2.5680 c3        1 MOL      0.027344
    128 C40        -8.6710   -0.1270   -2.3570 c         1 MOL      0.627803
    129 O19        -8.7250    0.5510   -3.4250 o         1 MOL     -0.555423
    130 C41        -9.8700   -2.3170   -2.5960 c3        1 MOL      0.226464
    131 C42       -10.8230   -1.7250   -3.6380 c3        1 MOL     -0.396554
    132 O20       -10.4990   -2.2940   -1.3440 oh        1 MOL     -0.605027
    133 H60        -8.0800   -2.0300   -0.5620 hn        1 MOL      0.262840
    134 H61        -7.8550   -1.7590   -3.4800 h1        1 MOL      0.111842
    135 H62        -9.7390   -3.3770   -2.8110 h1        1 MOL      0.068159
    136 H63       -11.4100   -2.5080   -1.5780 ho        1 MOL      0.397615
    137 H64       -11.1820   -0.7410   -3.3420 hc        1 MOL      0.107312
    138 H65       -10.3160   -1.5600   -4.5830 hc        1 MOL      0.107312
    139 H66       -11.6750   -2.3950   -3.7540 hc        1 MOL      0.107312
    140 N12        -8.8490    0.3510   -1.0950 n         1 MOL     -0.606403
    141 C43        -9.1600    1.7350   -0.8370 c3        1 MOL      0.226495
    142 C44        -8.5220    2.2830    0.4900 c         1 MOL      0.462915
    143 O21        -8.0750    1.5260    1.3240 o         1 MOL     -0.525324
    144 C45       -10.7140    2.0100   -0.9160 c3        1 MOL     -0.274951
    145 C46       -11.3880    1.5950    0.3470 c3        1 MOL     -0.140875
    146 C47       -12.9280    1.8520    0.2180 c3        1 MOL     -0.043210
    147 C48       -13.6920    1.3630    1.4640 c3        1 MOL      0.011850
    148 N13       -15.0930    1.2500    1.1820 n4        1 MOL     -0.223322
    149 H67        -8.8350   -0.2830   -0.3030 hn        1 MOL      0.341966
    150 H68        -8.8220    2.4800   -1.5590 h1        1 MOL      0.040412
    151 H69       -11.1360    1.3970   -1.7170 hc        1 MOL      0.102171
    152 H70       -10.9430    3.0450   -1.2010 hc        1 MOL      0.102171
    153 H71       -10.9230    2.2320    1.0980 hc        1 MOL      0.074374
    154 H72       -11.0670    0.5890    0.5980 hc        1 MOL      0.074374
    155 H73       -13.2680    1.4250   -0.7270 hc        1 MOL      0.052582
    156 H74       -13.1270    2.9080    0.0130 hc        1 MOL      0.052582
    157 H75       -13.4860    1.9960    2.3320 hx        1 MOL      0.085400
    158 H76       -13.3430    0.3530    1.6790 hx        1 MOL      0.085400
    159 H77       -15.1590    0.6120    0.4040 hn        1 MOL      0.229328
    160 H78       -15.5600    0.8640    1.9840 hn        1 MOL      0.229328
    161 H79       -15.5630    2.1270    1.0380 hn        1 MOL      0.229328
    162 N14        -8.4340    3.5760    0.6640 n         1 MOL     -0.344580
    163 C49        -7.5680    4.2680    1.6570 c3        1 MOL      0.205166
    164 C50        -5.9860    4.1180    1.5890 c         1 MOL      0.479247
    165 O22        -5.4120    4.2360    2.6970 o         1 MOL     -0.556404
    166 C51        -7.9190    5.7720    1.5580 c3        1 MOL     -0.038671
    167 C52        -7.6000    6.5650    2.8960 c3        1 MOL     -0.405773
    168 C53        -7.8440    8.0600    2.6430 c         1 MOL      0.802772
    169 O23        -8.8940    8.4220    2.0120 o         1 MOL     -0.660120
    170 O24        -7.0080    8.9140    2.9060 o         1 MOL     -0.660120
    171 H80        -8.8530    4.1690   -0.0390 hn        1 MOL      0.213290
    172 H81        -7.8440    3.8450    2.6290 h1        1 MOL      0.031228
    173 H82        -8.9890    5.8150    1.3810 hc        1 MOL      0.020184
    174 H83        -7.3840    6.2920    0.7650 hc        1 MOL      0.020184
    175 H84        -6.5250    6.5020    3.0790 hc        1 MOL      0.111759
    176 H85        -8.2830    6.1160    3.6120 hc        1 MOL      0.111759
    177 N15        -5.3360    3.9750    0.4710 n         1 MOL     -0.474536
    178 C54        -5.8410    4.3270   -0.8980 c3        1 MOL      0.266641
    179 H86        -5.8620    3.4310   -1.5190 h1        1 MOL     -0.016813
    180 H87        -6.8480    4.7390   -0.8210 h1        1 MOL     -0.016813
    181 H88        -5.1800    5.0660   -1.3500 h1        1 MOL     -0.016813
    182 H89        -4.3380    3.9340    0.5950 hn        1 MOL      0.325096
    183 Ca1         6.0790    4.9130   -0.4580 Ca        1 MOL      1.737043
    184 O25         5.0350    2.4800   -1.5470 oh        1 MOL     -0.867291
    185 H90         4.7900    1.9850   -2.3350 ho        1 MOL      0.399279
    186 H91         4.5330    2.0730   -0.8410 ho        1 MOL      0.399279
@<TRIPOS>BOND
     1    1    2 1   
     2    1    4 1   
     3    1    5 1   
     4    1    6 1   
     5    2    3 2   
     6    2    7 1   
     7    7    8 1   
     8    7   15 1   
     9    8    9 1   
    10    8   11 1   
    11    8   16 1   
    12    9   10 2   
    13    9   19 1   
    14   11   12 1   
    15   11   17 1   
    16   11   18 1   
    17   12   13 1   
    18   12   14 1   
    19   19   20 1   
    20   19   28 1   
    21   20   21 1   
    22   20   23 1   
    23   20   29 1   
    24   21   22 2   
    25   21   41 1   
    26   23   24 1   
    27   23   30 1   
    28   23   31 1   
    29   24   25 1   
    30   24   32 1   
    31   24   33 1   
    32   25   26 1   
    33   25   34 1   
    34   25   35 1   
    35   26   27 1   
    36   26   36 1   
    37   26   37 1   
    38   27   38 1   
    39   27   39 1   
    40   27   40 1   
    41   41   42 1   
    42   41   49 1   
    43   42   43 1   
    44   42   45 1   
    45   42   50 1   
    46   43   44 2   
    47   43   53 1   
    48   45   46 1   
    49   45   51 1   
    50   45   52 1   
    51   46   47 1   
    52   46   48 1   
    53   53   54 1   
    54   53   57 1   
    55   54   55 1   
    56   54   58 1   
    57   54   59 1   
    58   55   56 2   
    59   55   60 1   
    60   60   61 1   
    61   60   68 1   
    62   61   62 1   
    63   61   64 1   
    64   61   69 1   
    65   62   63 2   
    66   62   72 1   
    67   64   65 1   
    68   64   70 1   
    69   64   71 1   
    70   65   66 1   
    71   65   67 1   
    72   72   73 1   
    73   72   76 1   
    74   73   74 1   
    75   73   77 1   
    76   73   78 1   
    77   74   75 2   
    78   74   79 1   
    79   79   80 1   
    80   79   86 1   
    81   80   81 1   
    82   80   83 1   
    83   80   87 1   
    84   81   82 2   
    85   81   93 1   
    86   83   84 1   
    87   83   85 1   
    88   83   88 1   
    89   84   90 1   
    90   84   91 1   
    91   84   92 1   
    92   85   89 1   
    93   93   94 1   
    94   93  101 1   
    95   94   95 1   
    96   94   97 1   
    97   94  102 1   
    98   95   96 2   
    99   95  112 1   
   100   97   98 1   
   101   97   99 1   
   102   97  103 1   
   103   98  100 1   
   104   98  104 1   
   105   98  105 1   
   106   99  106 1   
   107   99  107 1   
   108   99  108 1   
   109  100  109 1   
   110  100  110 1   
   111  100  111 1   
   112  112  113 1   
   113  112  119 1   
   114  113  114 1   
   115  113  116 1   
   116  113  120 1   
   117  114  115 2   
   118  114  126 1   
   119  116  117 1   
   120  116  118 1   
   121  116  121 1   
   122  117  123 1   
   123  117  124 1   
   124  117  125 1   
   125  118  122 1   
   126  126  127 1   
   127  126  133 1   
   128  127  128 1   
   129  127  130 1   
   130  127  134 1   
   131  128  129 2   
   132  128  140 1   
   133  130  131 1   
   134  130  132 1   
   135  130  135 1   
   136  131  137 1   
   137  131  138 1   
   138  131  139 1   
   139  132  136 1   
   140  140  141 1   
   141  140  149 1   
   142  141  142 1   
   143  141  144 1   
   144  141  150 1   
   145  142  143 2   
   146  142  162 1   
   147  144  145 1   
   148  144  151 1   
   149  144  152 1   
   150  145  146 1   
   151  145  153 1   
   152  145  154 1   
   153  146  147 1   
   154  146  155 1   
   155  146  156 1   
   156  147  148 1   
   157  147  157 1   
   158  147  158 1   
   159  148  159 1   
   160  148  160 1   
   161  148  161 1   
   162  162  163 1   
   163  162  171 1   
   164  163  164 1   
   165  163  166 1   
   166  163  172 1   
   167  164  165 2   
   168  164  177 1   
   169  166  167 1   
   170  166  173 1   
   171  166  174 1   
   172  167  168 1   
   173  167  175 1   
   174  167  176 1   
   175  168  169 1   
   176  168  170 1   
   177  177  178 1   
   178  177  182 1   
   179  178  179 1   
   180  178  180 1   
   181  178  181 1   
   182  184  185 1   
   183  184  186 1   
@<TRIPOS>SUBSTRUCTURE
     1 MOL         1 TEMP              0 ****  ****    0 ROOT
