@<TRIPOS>MOLECULE
MOL
  195   189     1     0     0
SMALL
resp


@<TRIPOS>ATOM
      1 C1          3.0540    6.0850    4.1250 c3        1 MOL     -0.399668
      2 C2          3.3040    5.1450    2.8880 c         1 MOL      0.655601
      3 O1          3.2510    5.5300    1.6940 o         1 MOL     -0.623324
      4 H1          3.0980    7.1250    3.8040 hc        1 MOL      0.112495
      5 H2          2.0720    5.8760    4.5480 hc        1 MOL      0.112495
      6 H3          3.8210    5.9060    4.8780 hc        1 MOL      0.112495
      7 N1          3.4320    3.8350    3.1280 n         1 MOL     -0.513182
      8 C3          3.5910    2.8260    2.0720 c3        1 MOL      0.084541
      9 C4          2.2460    2.2720    1.5000 c         1 MOL      0.366987
     10 O2          2.2760    1.3840    0.5870 o         1 MOL     -0.532718
     11 C5          4.3500    1.6330    2.6870 c3        1 MOL     -0.283419
     12 C6          3.6280    0.8590    3.8350 c         1 MOL      0.794818
     13 O3          3.3170    1.3540    4.9250 o         1 MOL     -0.733917
     14 O4          3.4100   -0.3550    3.5900 o         1 MOL     -0.733917
     15 H4          3.3240    3.5960    4.1070 hn        1 MOL      0.304689
     16 H5          4.1340    3.3370    1.2730 h1        1 MOL      0.191020
     17 H6          5.2900    2.0110    3.0910 hc        1 MOL      0.077812
     18 H7          4.6270    0.9180    1.9130 hc        1 MOL      0.077812
     19 N2          1.0840    2.8090    1.8910 n         1 MOL     -0.320325
     20 C7         -0.2200    2.2590    1.3490 c3        1 MOL      0.051603
     21 C8         -1.1470    3.3280    0.6650 c         1 MOL      0.412275
     22 O5         -1.1140    4.4710    1.0800 o         1 MOL     -0.526852
     23 C9         -0.9460    1.5260    2.4670 c3        1 MOL     -0.136614
     24 C10        -0.1270    0.3440    3.0810 c3        1 MOL      0.062878
     25 C11        -0.8470   -0.5530    4.0370 c3        1 MOL      0.010429
     26 C12        -0.0020   -1.8150    4.3300 c3        1 MOL      0.184479
     27 N3          1.2400   -1.6190    4.9980 n4        1 MOL     -0.394703
     28 H8          1.1670    3.3560    2.7380 hn        1 MOL      0.246882
     29 H9          0.0800    1.4540    0.6740 h1        1 MOL      0.135514
     30 H10        -1.8580    1.1590    2.0030 hc        1 MOL      0.060952
     31 H11        -1.2650    2.1830    3.2710 hc        1 MOL      0.060952
     32 H12         0.7970    0.7380    3.5060 hc        1 MOL     -0.007082
     33 H13         0.1320   -0.3230    2.2590 hc        1 MOL     -0.007082
     34 H14        -1.8330   -0.7770    3.6260 hc        1 MOL      0.014104
     35 H15        -1.0240   -0.0820    5.0060 hc        1 MOL      0.014104
     36 H16         0.1320   -2.4310    3.4490 hx        1 MOL      0.001491
     37 H17        -0.5550   -2.4450    5.0280 hx        1 MOL      0.001491
     38 H18         1.8470   -1.0470    4.4290 hn        1 MOL      0.313924
     39 H19         1.1280   -1.2940    5.9440 hn        1 MOL      0.313924
     40 H20         1.6660   -2.5210    5.1800 hn        1 MOL      0.313924
     41 N4         -1.9750    3.0120   -0.3400 n         1 MOL     -0.236376
     42 C13        -2.2080    1.7710   -1.1350 c3        1 MOL      0.024372
     43 C14        -2.5860    0.5120   -0.3980 c         1 MOL      0.528467
     44 O6         -1.9050   -0.4820   -0.5700 o         1 MOL     -0.565337
     45 C15        -0.9720    1.6320   -2.1020 c3        1 MOL     -0.403524
     46 C16        -0.7200    2.9100   -2.8770 c         1 MOL      1.010485
     47 O7          0.4250    3.3910   -2.8830 o         1 MOL     -0.792026
     48 O8         -1.5570    3.5310   -3.4880 o         1 MOL     -0.792026
     49 H21        -2.6770    3.7380   -0.4720 hn        1 MOL      0.242455
     50 H22        -3.0750    1.9450   -1.7620 h1        1 MOL      0.062982
     51 H23        -1.1040    0.8420   -2.8410 hc        1 MOL      0.091162
     52 H24        -0.0890    1.4110   -1.5050 hc        1 MOL      0.091162
     53 N5         -3.5680    0.3930    0.5120 n         1 MOL     -0.183098
     54 C17        -4.4870    1.4320    1.0670 c3        1 MOL     -0.291048
     55 C18        -5.1850    0.8580    2.2280 c         1 MOL      0.546654
     56 O9         -4.6580    0.0990    2.9810 o         1 MOL     -0.549069
     57 H25        -3.7250   -0.5740    0.7600 hn        1 MOL      0.218990
     58 H26        -5.1880    1.6480    0.2590 h1        1 MOL      0.117718
     59 H27        -3.9630    2.3080    1.4540 h1        1 MOL      0.117718
     60 N6         -6.4290    1.2080    2.5070 n         1 MOL     -0.197051
     61 C19        -7.3410    2.2380    1.9320 c3        1 MOL     -0.084130
     62 C20        -8.3500    1.6630    1.0060 c         1 MOL      0.624604
     63 O10        -8.7640    2.4010    0.1410 o         1 MOL     -0.557736
     64 C21        -7.9590    2.9920    3.1100 c3        1 MOL     -0.111020
     65 C22        -8.7200    2.0900    4.0270 c         1 MOL      0.657260
     66 O11        -8.0540    1.4760    4.9310 o         1 MOL     -0.628609
     67 O12        -9.9160    2.0090    3.8400 o         1 MOL     -0.628609
     68 H28        -6.6830    0.8110    3.4050 hn        1 MOL      0.153712
     69 H29        -6.7620    2.9180    1.3150 h1        1 MOL      0.053009
     70 H30        -8.5780    3.8050    2.7390 hc        1 MOL      0.035973
     71 H31        -7.1290    3.3250    3.7360 hc        1 MOL      0.035973
     72 N7         -8.6570    0.3150    1.0710 n         1 MOL     -0.362767
     73 C23        -9.5250   -0.2700    0.0230 c3        1 MOL     -0.065204
     74 C24        -8.8930   -1.2900   -0.8790 c         1 MOL      0.486493
     75 O13        -9.4950   -2.2460   -1.3460 o         1 MOL     -0.532976
     76 H32        -8.0740   -0.2810    1.6260 hn        1 MOL      0.252671
     77 H33       -10.0800    0.4230   -0.6010 h1        1 MOL      0.100731
     78 H34       -10.2990   -0.7650    0.6050 h1        1 MOL      0.100731
     79 N8         -7.5210   -1.3190   -1.0060 n         1 MOL     -0.295705
     80 C25        -6.7160   -2.2560   -1.8490 c3        1 MOL      0.151933
     81 C26        -5.4070   -2.6210   -1.1590 c         1 MOL      0.248836
     82 O14        -5.1560   -1.9200   -0.1320 o         1 MOL     -0.480689
     83 C27        -6.5110   -1.7070   -3.3240 c3        1 MOL      0.191203
     84 C28        -5.5850   -0.5390   -3.3180 c3        1 MOL     -0.392864
     85 O15        -7.8050   -1.3190   -3.7930 oh        1 MOL     -0.557874
     86 H35        -6.9990   -0.6380   -0.4620 hn        1 MOL      0.136905
     87 H36        -7.4350   -3.0590   -1.9810 h1        1 MOL      0.085257
     88 H37        -6.1920   -2.5920   -3.8800 h1        1 MOL      0.047915
     89 H38        -7.5800   -0.5760   -4.3650 ho        1 MOL      0.384991
     90 H39        -5.1890   -0.5350   -4.3330 hc        1 MOL      0.116056
     91 H40        -6.0420    0.4530   -3.2190 hc        1 MOL      0.116056
     92 H41        -4.7030   -0.6120   -2.6890 hc        1 MOL      0.116056
     93 N9         -4.5390   -3.4650   -1.7510 n         1 MOL     -0.325769
     94 C29        -3.2110   -3.7990   -1.2110 c3        1 MOL     -0.027280
     95 C30        -2.1800   -3.9890   -2.3160 c         1 MOL      0.529543
     96 O16        -2.4790   -4.6760   -3.2830 o         1 MOL     -0.537382
     97 C31        -3.2020   -5.0590   -0.2690 c3        1 MOL      0.182267
     98 C32        -4.4360   -5.2490    0.6430 c3        1 MOL      0.083456
     99 C33        -1.9130   -4.9880    0.6070 c3        1 MOL     -0.377146
    100 C34        -4.4800   -6.4840    1.5260 c3        1 MOL     -0.263906
    101 H42        -4.8420   -3.8470   -2.6330 hn        1 MOL      0.243481
    102 H43        -2.8390   -2.8840   -0.7530 h1        1 MOL      0.051987
    103 H44        -3.2200   -5.9270   -0.9210 hc        1 MOL     -0.017681
    104 H45        -5.2760   -5.1490   -0.0260 hc        1 MOL      0.027456
    105 H46        -4.4110   -4.4010    1.3250 hc        1 MOL      0.027456
    106 H47        -1.8210   -5.9020    1.2030 hc        1 MOL      0.077954
    107 H48        -1.0230   -4.9290   -0.0130 hc        1 MOL      0.077954
    108 H49        -2.0020   -4.1500    1.2900 hc        1 MOL      0.077954
    109 H50        -3.9240   -6.3300    2.4420 hc        1 MOL      0.064097
    110 H51        -5.5190   -6.6970    1.7660 hc        1 MOL      0.064097
    111 H52        -4.0770   -7.3380    0.9800 hc        1 MOL      0.064097
    112 N10        -1.0080   -3.5220   -2.1130 n         1 MOL     -0.268724
    113 C35         0.0700   -3.7510   -3.0690 c3        1 MOL      0.049090
    114 C36         1.4380   -4.2520   -2.4920 c         1 MOL      0.315458
    115 O17         2.1450   -5.0050   -3.1310 o         1 MOL     -0.457025
    116 C37         0.4750   -2.5130   -3.8570 c3        1 MOL      0.116171
    117 C38         0.8850   -1.2280   -3.0840 c3        1 MOL     -0.094911
    118 O18        -0.6350   -2.1680   -4.6890 oh        1 MOL     -0.625712
    119 H53        -0.8090   -2.9430   -1.3070 hn        1 MOL      0.229178
    120 H54        -0.2320   -4.5400   -3.7570 h1        1 MOL      0.126085
    121 H55         1.2850   -2.6730   -4.5690 h1        1 MOL      0.085331
    122 H56        -0.4990   -1.3540   -5.1890 ho        1 MOL      0.408444
    123 H57         1.8880   -1.3170   -2.6570 hc        1 MOL      0.037204
    124 H58         0.8620   -0.3310   -3.7110 hc        1 MOL      0.037204
    125 H59         0.2380   -1.0750   -2.2240 hc        1 MOL      0.037204
    126 N11         1.6960   -3.7980   -1.2390 n         1 MOL     -0.271842
    127 C39         2.9230   -4.0240   -0.4760 c3        1 MOL      0.002849
    128 C40         4.1750   -3.4400   -1.0430 c         1 MOL      0.491109
    129 O19         4.2980   -3.1290   -2.2300 o         1 MOL     -0.455543
    130 C41         3.0580   -5.5260   -0.1090 c3        1 MOL      0.438437
    131 C42         1.7620   -6.2280    0.2070 c3        1 MOL     -0.428365
    132 O20         3.8330   -5.6160    1.0710 oh        1 MOL     -0.713229
    133 H60         1.0320   -3.1100   -0.8910 hn        1 MOL      0.249692
    134 H61         2.6840   -3.5860    0.4930 h1        1 MOL      0.063380
    135 H62         3.5370   -6.0380   -0.9420 h1        1 MOL      0.023179
    136 H63         3.9720   -6.5180    1.3670 ho        1 MOL      0.373303
    137 H64         1.8670   -7.2390    0.5810 hc        1 MOL      0.108816
    138 H65         1.1430   -5.7430    0.9610 hc        1 MOL      0.108816
    139 H66         1.1730   -6.1490   -0.7160 hc        1 MOL      0.108816
    140 N12         5.2830   -3.4870   -0.2670 n         1 MOL     -0.344996
    141 C43         6.6620   -3.2200   -0.7690 c3        1 MOL     -0.173677
    142 C44         6.9720   -1.7700   -1.0720 c         1 MOL      0.510200
    143 O21         8.0380   -1.5830   -1.6820 o         1 MOL     -0.539386
    144 C45         7.6620   -3.8730    0.1900 c3        1 MOL      0.035488
    145 C46         7.6190   -3.4360    1.6470 c3        1 MOL     -0.016085
    146 C47         7.4750   -4.5710    2.5730 c3        1 MOL     -0.161865
    147 C48         6.0690   -5.0020    2.8140 c3        1 MOL      0.197624
    148 N13         6.0510   -5.9550    3.8710 n4        1 MOL     -0.226755
    149 H67         5.1660   -3.9400    0.6290 hn        1 MOL      0.190655
    150 H68         6.7740   -3.8650   -1.6300 h1        1 MOL      0.149302
    151 H69         8.6610   -3.7880   -0.2400 hc        1 MOL      0.035617
    152 H70         7.4760   -4.9400    0.0970 hc        1 MOL      0.035617
    153 H71         6.9560   -2.6070    1.8770 hc        1 MOL      0.057408
    154 H72         8.6110   -3.0580    1.9110 hc        1 MOL      0.057408
    155 H73         7.8270   -4.3220    3.5630 hc        1 MOL      0.046803
    156 H74         8.1540   -5.3600    2.2540 hc        1 MOL      0.046803
    157 H75         5.7460   -5.4760    1.8910 hx        1 MOL      0.033942
    158 H76         5.4170   -4.1460    2.9630 hx        1 MOL      0.033942
    159 H77         6.6750   -6.7350    3.6920 hn        1 MOL      0.236521
    160 H78         6.1560   -5.6140    4.8140 hn        1 MOL      0.236521
    161 H79         5.1730   -6.4660    3.8640 hn        1 MOL      0.236521
    162 N14         6.1320   -0.7740   -0.7090 n         1 MOL     -0.137828
    163 C49         6.4590    0.6290   -1.0230 c3        1 MOL     -0.538713
    164 C50         7.3590    1.3320    0.0170 c         1 MOL      0.597636
    165 O22         7.0820    1.3260    1.2200 o         1 MOL     -0.530643
    166 C51         5.1750    1.3690   -1.3470 c3        1 MOL      0.461779
    167 C52         5.4950    2.6080   -2.1640 c3        1 MOL     -0.121852
    168 C53         4.2600    3.3940   -2.2580 c         1 MOL      0.565869
    169 O23         3.6380    3.4750   -3.3400 o         1 MOL     -0.741151
    170 O24         3.8610    4.1260   -1.3030 o         1 MOL     -0.741151
    171 H80         5.2340   -0.9600   -0.2810 hn        1 MOL      0.182219
    172 H81         7.0500    0.5950   -1.9300 h1        1 MOL      0.149616
    173 H82         4.6020    1.6440   -0.4670 hc        1 MOL     -0.031713
    174 H83         4.4900    0.7580   -1.9380 hc        1 MOL     -0.031713
    175 H84         5.7960    2.2890   -3.1620 hc        1 MOL      0.016496
    176 H85         6.2620    3.1980   -1.6650 hc        1 MOL      0.016496
    177 N15         8.4350    1.8730   -0.5180 n         1 MOL     -0.242712
    178 C54         9.4640    2.5410    0.3390 c3        1 MOL     -0.242946
    179 H86        10.0560    3.2230   -0.2700 h1        1 MOL      0.110836
    180 H87         8.9690    3.1010    1.1320 h1        1 MOL      0.110836
    181 H88        10.1170    1.7870    0.7790 h1        1 MOL      0.110836
    182 H89         8.6380    1.7940   -1.5120 hn        1 MOL      0.251905
    183 Ca1         2.1250    5.3590   -2.6360 Ca        1 MOL      1.738890
    184 O25         1.1260    5.7180   -0.2690 oh        1 MOL     -0.853561
    185 H90         1.8250    5.9720    0.3370 ho        1 MOL      0.418614
    186 H91         0.3400    5.6660    0.2800 ho        1 MOL      0.418614
    187 O26         1.6590    7.9840   -2.3830 oh        1 MOL     -0.853561
    188 H92         0.9320    8.5780   -2.2070 ho        1 MOL      0.418614
    189 H93         2.4100    8.5480   -2.5440 ho        1 MOL      0.418614
    190 O27         1.4480    5.4160   -5.3070 oh        1 MOL     -0.853561
    191 H94         1.8550    4.7550   -5.8620 ho        1 MOL      0.418614
    192 H95         1.5200    6.2290   -5.8070 ho        1 MOL      0.418614
    193 O28        -0.9660    6.0970   -2.7890 oh        1 MOL     -0.853561
    194 H96        -1.1810    5.1930   -3.0090 ho        1 MOL      0.418614
    195 H97        -1.1190    6.5880   -3.5910 ho        1 MOL      0.418614
@<TRIPOS>BOND
     1    1    2 1   
     2    1    4 1   
     3    1    5 1   
     4    1    6 1   
     5    2    3 2   
     6    2    7 1   
     7    7    8 1   
     8    7   15 1   
     9    8    9 1   
    10    8   11 1   
    11    8   16 1   
    12    9   10 2   
    13    9   19 1   
    14   11   12 1   
    15   11   17 1   
    16   11   18 1   
    17   12   13 1   
    18   12   14 1   
    19   19   20 1   
    20   19   28 1   
    21   20   21 1   
    22   20   23 1   
    23   20   29 1   
    24   21   22 2   
    25   21   41 1   
    26   23   24 1   
    27   23   30 1   
    28   23   31 1   
    29   24   25 1   
    30   24   32 1   
    31   24   33 1   
    32   25   26 1   
    33   25   34 1   
    34   25   35 1   
    35   26   27 1   
    36   26   36 1   
    37   26   37 1   
    38   27   38 1   
    39   27   39 1   
    40   27   40 1   
    41   41   42 1   
    42   41   49 1   
    43   42   43 1   
    44   42   45 1   
    45   42   50 1   
    46   43   44 2   
    47   43   53 1   
    48   45   46 1   
    49   45   51 1   
    50   45   52 1   
    51   46   47 1   
    52   46   48 1   
    53   53   54 1   
    54   53   57 1   
    55   54   55 1   
    56   54   58 1   
    57   54   59 1   
    58   55   56 2   
    59   55   60 1   
    60   60   61 1   
    61   60   68 1   
    62   61   62 1   
    63   61   64 1   
    64   61   69 1   
    65   62   63 2   
    66   62   72 1   
    67   64   65 1   
    68   64   70 1   
    69   64   71 1   
    70   65   66 1   
    71   65   67 1   
    72   72   73 1   
    73   72   76 1   
    74   73   74 1   
    75   73   77 1   
    76   73   78 1   
    77   74   75 2   
    78   74   79 1   
    79   79   80 1   
    80   79   86 1   
    81   80   81 1   
    82   80   83 1   
    83   80   87 1   
    84   81   82 2   
    85   81   93 1   
    86   83   84 1   
    87   83   85 1   
    88   83   88 1   
    89   84   90 1   
    90   84   91 1   
    91   84   92 1   
    92   85   89 1   
    93   93   94 1   
    94   93  101 1   
    95   94   95 1   
    96   94   97 1   
    97   94  102 1   
    98   95   96 2   
    99   95  112 1   
   100   97   98 1   
   101   97   99 1   
   102   97  103 1   
   103   98  100 1   
   104   98  104 1   
   105   98  105 1   
   106   99  106 1   
   107   99  107 1   
   108   99  108 1   
   109  100  109 1   
   110  100  110 1   
   111  100  111 1   
   112  112  113 1   
   113  112  119 1   
   114  113  114 1   
   115  113  116 1   
   116  113  120 1   
   117  114  115 2   
   118  114  126 1   
   119  116  117 1   
   120  116  118 1   
   121  116  121 1   
   122  117  123 1   
   123  117  124 1   
   124  117  125 1   
   125  118  122 1   
   126  126  127 1   
   127  126  133 1   
   128  127  128 1   
   129  127  130 1   
   130  127  134 1   
   131  128  129 2   
   132  128  140 1   
   133  130  131 1   
   134  130  132 1   
   135  130  135 1   
   136  131  137 1   
   137  131  138 1   
   138  131  139 1   
   139  132  136 1   
   140  140  141 1   
   141  140  149 1   
   142  141  142 1   
   143  141  144 1   
   144  141  150 1   
   145  142  143 2   
   146  142  162 1   
   147  144  145 1   
   148  144  151 1   
   149  144  152 1   
   150  145  146 1   
   151  145  153 1   
   152  145  154 1   
   153  146  147 1   
   154  146  155 1   
   155  146  156 1   
   156  147  148 1   
   157  147  157 1   
   158  147  158 1   
   159  148  159 1   
   160  148  160 1   
   161  148  161 1   
   162  162  163 1   
   163  162  171 1   
   164  163  164 1   
   165  163  166 1   
   166  163  172 1   
   167  164  165 2   
   168  164  177 1   
   169  166  167 1   
   170  166  173 1   
   171  166  174 1   
   172  167  168 1   
   173  167  175 1   
   174  167  176 1   
   175  168  169 1   
   176  168  170 1   
   177  177  178 1   
   178  177  182 1   
   179  178  179 1   
   180  178  180 1   
   181  178  181 1   
   182  184  185 1   
   183  184  186 1   
   184  187  188 1   
   185  187  189 1   
   186  190  191 1   
   187  190  192 1   
   188  193  194 1   
   189  193  195 1   
@<TRIPOS>SUBSTRUCTURE
     1 MOL         1 TEMP              0 ****  ****    0 ROOT
