@<TRIPOS>MOLECULE
MOL
  192   187     1     0     0
SMALL
resp


@<TRIPOS>ATOM
      1 C1         -3.8530   -3.4440   -4.4340 c3        1 MOL     -0.382085
      2 C2         -4.6600   -2.9450   -3.2000 c         1 MOL      0.815423
      3 O1         -4.0470   -2.6410   -2.1560 o         1 MOL     -0.687221
      4 H1         -3.7520   -2.6320   -5.1540 hc        1 MOL      0.099517
      5 H2         -2.8630   -3.7690   -4.1140 hc        1 MOL      0.099517
      6 H3         -4.3770   -4.2790   -4.8990 hc        1 MOL      0.099517
      7 N1         -6.0210   -2.6970   -3.3610 n         1 MOL     -0.857598
      8 C3         -6.8830   -1.8670   -2.4900 c3        1 MOL      0.408210
      9 C4         -5.9840   -0.7170   -1.8210 c         1 MOL      0.140818
     10 O2         -5.4710   -0.7960   -0.7190 o         1 MOL     -0.136917
     11 C5         -7.7020   -2.6010   -1.4850 c3        1 MOL     -0.137518
     12 C6         -7.0750   -3.8190   -0.8160 c         1 MOL      0.857331
     13 O3         -6.0620   -3.6420   -0.1150 o         1 MOL     -0.770881
     14 O4         -7.5600   -4.9450   -1.0850 o         1 MOL     -0.770881
     15 H4         -6.4670   -3.1520   -4.1410 hn        1 MOL      0.374579
     16 H5         -7.6260   -1.4140   -3.1500 h1        1 MOL     -0.008846
     17 H6         -8.6090   -2.9560   -1.9520 hc        1 MOL     -0.017054
     18 H7         -7.9880   -1.8720   -0.7240 hc        1 MOL     -0.017054
     19 N2         -5.8510    0.3690   -2.5780 n         1 MOL     -0.317808
     20 C7         -5.1850    1.6940   -2.2520 c3        1 MOL      0.034280
     21 C8         -5.9950    2.5590   -1.2740 c         1 MOL      0.372110
     22 O5         -6.1870    3.7460   -1.4770 o         1 MOL     -0.551275
     23 C9         -3.6560    1.6870   -2.0350 c3        1 MOL      0.173677
     24 C10        -3.1730    2.9830   -2.7950 c3        1 MOL     -0.026182
     25 C11        -2.9020    0.4070   -2.3620 c3        1 MOL     -0.347029
     26 C12        -3.0850    2.8040   -4.3090 c3        1 MOL     -0.267119
     27 H8         -6.4020    0.4500   -3.4240 hn        1 MOL      0.243860
     28 H9         -5.3320    2.2650   -3.1780 h1        1 MOL      0.050167
     29 H10        -3.5300    1.7850   -0.9550 hc        1 MOL     -0.117319
     30 H11        -2.1180    3.1290   -2.5790 hc        1 MOL      0.058992
     31 H12        -3.7300    3.8720   -2.4980 hc        1 MOL      0.058992
     32 H13        -3.2050   -0.4050   -1.6970 hc        1 MOL      0.101341
     33 H14        -3.0390    0.1900   -3.4180 hc        1 MOL      0.101341
     34 H15        -1.8550    0.6610   -2.2010 hc        1 MOL      0.101341
     35 H16        -2.9570    3.7640   -4.8190 hc        1 MOL      0.048850
     36 H17        -2.2040    2.2140   -4.5510 hc        1 MOL      0.048850
     37 H18        -3.9780    2.2890   -4.6730 hc        1 MOL      0.048850
     38 N3         -6.4490    1.9110   -0.2330 n         1 MOL      0.011516
     39 C13        -7.3880    2.4810    0.7800 c3        1 MOL     -0.036328
     40 C14        -6.8070    3.7060    1.4390 c         1 MOL      0.546537
     41 O6         -7.5770    4.6730    1.7620 o         1 MOL     -0.599289
     42 C15        -7.6430    1.4390    1.8950 c3        1 MOL     -0.219145
     43 C16        -8.1960    0.0620    1.4220 c         1 MOL      0.740712
     44 O7         -9.0620    0.0800    0.5300 o         1 MOL     -0.671251
     45 O8         -7.8290   -0.9470    2.0420 o         1 MOL     -0.671251
     46 H19        -6.3150    0.9140   -0.2420 hn        1 MOL     -0.037678
     47 H20        -8.3480    2.6990    0.3160 h1        1 MOL      0.066884
     48 H21        -8.4310    1.8440    2.5320 hc        1 MOL      0.051432
     49 H22        -6.7420    1.3070    2.4780 hc        1 MOL      0.051432
     50 N4         -5.4940    3.9400    1.7540 n         1 MOL     -0.488857
     51 C17        -4.2600    3.0690    1.6590 c3        1 MOL      0.114521
     52 C18        -3.0620    3.5450    2.4040 c         1 MOL      0.435780
     53 O9         -2.7760    4.7550    2.4710 o         1 MOL     -0.583467
     54 H23        -5.2580    4.8260    2.1840 hn        1 MOL      0.285623
     55 H24        -3.9610    3.0390    0.6070 h1        1 MOL      0.071112
     56 H25        -4.5760    2.0720    1.9560 h1        1 MOL      0.071112
     57 N5         -2.2190    2.7310    3.0220 n         1 MOL     -0.315070
     58 C19        -2.3300    1.3290    3.1400 c3        1 MOL      0.453968
     59 C20        -2.4780    0.6220    1.8080 c         1 MOL      0.064735
     60 O10        -3.4760   -0.1180    1.4640 o         1 MOL     -0.480105
     61 C21        -3.3690    0.9560    4.1700 c3        1 MOL     -0.431505
     62 C22        -3.4360   -0.4770    4.3970 c         1 MOL      0.759758
     63 O11        -2.4060   -1.1840    4.3300 o         1 MOL     -0.661695
     64 O12        -4.4750   -1.0220    4.7560 o         1 MOL     -0.661695
     65 H26        -1.3770    3.1190    3.4160 hn        1 MOL      0.168307
     66 H27        -1.4010    1.0080    3.5950 h1        1 MOL      0.009984
     67 H28        -4.3870    1.1930    3.8630 hc        1 MOL      0.084211
     68 H29        -3.1850    1.5100    5.0920 hc        1 MOL      0.084211
     69 N6         -1.5100    0.7190    0.9050 n         1 MOL     -0.159164
     70 C23        -0.2560    1.3600    1.0570 c3        1 MOL     -0.098047
     71 C24        -0.2400    2.7500    0.4860 c         1 MOL      0.707625
     72 O13        -1.1330    3.2320   -0.2200 o         1 MOL     -0.553283
     73 H30        -1.6360    0.3590   -0.0190 hn        1 MOL      0.210867
     74 H31         0.4690    0.8720    0.4110 h1        1 MOL      0.069896
     75 H32         0.0430    1.3650    2.1100 h1        1 MOL      0.069896
     76 N7          0.8530    3.4440    0.8300 n         1 MOL     -0.515480
     77 C25         1.1810    4.8050    0.3910 c3        1 MOL      0.020883
     78 C26         1.7560    4.9400   -1.0820 c         1 MOL      0.353604
     79 O14         1.7880    5.9960   -1.6560 o         1 MOL     -0.489072
     80 C27         2.1720    5.3590    1.3900 c3        1 MOL      0.293246
     81 C28         1.5850    5.3310    2.7950 c3        1 MOL     -0.379936
     82 C29         1.6260    3.9740    3.5900 c         1 MOL      0.519711
     83 N8          2.8390    3.6510    4.0190 n         1 MOL     -0.694710
     84 O15         0.6730    3.1920    3.7340 o         1 MOL     -0.433221
     85 H33         1.3030    3.0330    1.6320 hn        1 MOL      0.265703
     86 H34         0.3150    5.4780    0.3750 h1        1 MOL      0.132984
     87 H35         2.3590    6.4020    1.1860 hc        1 MOL     -0.069516
     88 H36         3.0960    4.7850    1.3630 hc        1 MOL     -0.069516
     89 H37         0.6050    5.8050    2.7020 hc        1 MOL      0.119125
     90 H38         2.2330    5.8980    3.4570 hc        1 MOL      0.119125
     91 H39         3.5810    4.3310    4.0310 hn        1 MOL      0.359726
     92 H40         2.9790    2.7820    4.5210 hn        1 MOL      0.359726
     93 N9          2.3770    3.8440   -1.5600 n         1 MOL     -0.212028
     94 C30         2.9170    3.7360   -2.9580 c3        1 MOL     -0.269770
     95 C31         4.3370    3.3220   -3.0640 c         1 MOL      0.760175
     96 O16         4.8110    3.2250   -4.1610 o         1 MOL     -0.561580
     97 C32         1.9300    2.9750   -3.8900 c3        1 MOL      0.091707
     98 C33         0.4980    3.5100   -3.9210 c3        1 MOL     -0.118660
     99 C34         2.0320    1.4810   -3.7300 c3        1 MOL     -0.118660
    100 H41         2.3240    3.0000   -1.0030 hn        1 MOL      0.195162
    101 H42         2.9730    4.7850   -3.2500 h1        1 MOL      0.139281
    102 H43         2.2860    3.1500   -4.9080 hc        1 MOL      0.023768
    103 H44         0.0600    3.4320   -4.9240 hc        1 MOL      0.043360
    104 H45        -0.0680    3.0920   -3.0950 hc        1 MOL      0.043360
    105 H46         0.4750    4.5860   -3.7460 hc        1 MOL      0.043360
    106 H47         1.3070    1.0620   -4.4300 hc        1 MOL      0.043360
    107 H48         3.0230    1.0850   -3.9380 hc        1 MOL      0.043360
    108 H49         1.7230    1.1630   -2.7390 hc        1 MOL      0.043360
    109 N10         5.0730    3.1150   -1.9250 n         1 MOL     -0.785577
    110 C35         6.5680    3.0320   -1.9640 c3        1 MOL      0.387457
    111 C36         7.0430    1.6330   -1.5330 c         1 MOL      0.363702
    112 O17         8.1760    1.2580   -1.8230 o         1 MOL     -0.511433
    113 C37         7.0930    4.1220   -0.9820 c3        1 MOL     -0.186754
    114 C38         8.5740    4.1550   -0.9190 c         1 MOL      0.532778
    115 N11         9.2480    4.5130   -1.9790 n         1 MOL     -0.723044
    116 O18         9.2310    3.7890    0.0830 o         1 MOL     -0.536729
    117 H50         4.5650    3.1100   -1.0510 hn        1 MOL      0.362164
    118 H51         6.9750    3.2490   -2.9500 h1        1 MOL      0.024200
    119 H52         6.7510    3.8240    0.0080 hc        1 MOL      0.053068
    120 H53         6.7470    5.1480   -1.1500 hc        1 MOL      0.053068
    121 H54         8.7950    4.9910   -2.7510 hn        1 MOL      0.349569
    122 H55        10.2000    4.6760   -1.6900 hn        1 MOL      0.349569
    123 N12         6.2290    0.8850   -0.8250 n         1 MOL     -0.273454
    124 C39         6.5370   -0.4950   -0.3230 c3        1 MOL      0.062985
    125 C40         5.2900   -1.3600   -0.1550 c         1 MOL      0.388901
    126 O19         4.1590   -0.8460   -0.1920 o         1 MOL     -0.461416
    127 C41         7.3450   -0.3400    0.9760 c3        1 MOL     -0.245440
    128 C42         7.8140   -1.4790    1.8180 ca        1 MOL      0.353588
    129 C43         8.4080   -2.6280    1.2490 ca        1 MOL     -0.425035
    130 C44         7.7360   -1.3240    3.1610 ca        1 MOL     -0.425035
    131 C45         8.7760   -3.6810    2.0750 ca        1 MOL     -0.017577
    132 C46         8.1910   -2.3890    3.9610 ca        1 MOL     -0.017577
    133 C47         8.7500   -3.5700    3.4440 ca        1 MOL      0.082954
    134 O20         9.1930   -4.5110    4.2860 oh        1 MOL     -0.414656
    135 H56         5.3380    1.2950   -0.5960 hn        1 MOL      0.220669
    136 H57         7.1590   -0.9650   -1.0960 h1        1 MOL      0.068806
    137 H58         6.7150    0.3750    1.5010 hc        1 MOL      0.096466
    138 H59         8.2450    0.2240    0.7460 hc        1 MOL      0.096466
    139 H60         8.5010   -2.6710    0.1720 ha        1 MOL      0.190608
    140 H61         7.3660   -0.4230    3.6230 ha        1 MOL      0.190608
    141 H62         9.2160   -4.5510    1.6020 ha        1 MOL      0.103689
    142 H63         7.9470   -2.3760    5.0210 ha        1 MOL      0.103689
    143 H64         9.4400   -5.3060    3.8040 ho        1 MOL      0.338750
    144 N13         5.5560   -2.6760    0.1440 n         1 MOL     -0.371618
    145 C48         4.6320   -3.7560    0.4330 c3        1 MOL      0.227547
    146 C49         3.6760   -4.2230   -0.7200 c         1 MOL      0.269905
    147 O21         3.3150   -5.3760   -0.8230 o         1 MOL     -0.479304
    148 C50         3.7690   -3.4940    1.6730 c3        1 MOL     -0.041352
    149 C51         4.5220   -3.2260    3.0050 c3        1 MOL     -0.378819
    150 C52         3.6350   -2.9020    4.2380 c         1 MOL      0.761185
    151 O22         3.1740   -3.9690    4.7790 o         1 MOL     -0.732566
    152 O23         3.4820   -1.7870    4.7450 o         1 MOL     -0.732566
    153 H65         6.5450   -2.8910    0.1160 hn        1 MOL      0.164350
    154 H66         5.2360   -4.6230    0.7060 h1        1 MOL      0.011112
    155 H67         3.2770   -4.4460    1.8760 hc        1 MOL      0.060990
    156 H68         3.1360   -2.6600    1.3680 hc        1 MOL      0.060990
    157 H69         5.1560   -2.3510    2.8120 hc        1 MOL      0.108532
    158 H70         5.1620   -4.0850    3.1920 hc        1 MOL      0.108532
    159 N14         3.3110   -3.2840   -1.6150 n         1 MOL     -0.231178
    160 C53         2.2150   -3.4990   -2.5910 c3        1 MOL      0.065257
    161 C54         2.7160   -3.9710   -3.9730 c         1 MOL      0.336847
    162 O24         1.8650   -4.6080   -4.6550 o         1 MOL     -0.527983
    163 C55         1.2530   -2.2980   -2.7490 c3        1 MOL     -0.094959
    164 C56         0.5880   -1.8840   -1.4300 c3        1 MOL      0.383866
    165 C57        -0.5010   -2.7350   -0.9100 c         1 MOL      0.637453
    166 O25        -0.4480   -3.9820   -1.1040 o         1 MOL     -0.649453
    167 O26        -1.5190   -2.1800   -0.4360 o         1 MOL     -0.649453
    168 H71         3.5380   -2.3170   -1.4510 hn        1 MOL      0.179582
    169 H72         1.6200   -4.3630   -2.3070 h1        1 MOL      0.135366
    170 H73         0.4330   -2.5890   -3.4050 hc        1 MOL     -0.003320
    171 H74         1.8270   -1.4530   -3.1360 hc        1 MOL     -0.003320
    172 H75         0.2340   -0.8510   -1.4550 hc        1 MOL     -0.162540
    173 H76         1.3880   -1.8620   -0.6850 hc        1 MOL     -0.162540
    174 N15         4.0090   -3.8740   -4.3200 n         1 MOL     -0.170281
    175 C58         4.4780   -4.4160   -5.6030 c3        1 MOL     -0.116233
    176 H77         4.6210   -3.6000   -6.3120 h1        1 MOL      0.064936
    177 H78         5.4240   -4.9370   -5.4550 h1        1 MOL      0.064936
    178 H79         3.7380   -5.1130   -5.9970 h1        1 MOL      0.064936
    179 H80         4.6090   -3.5160   -3.5910 hn        1 MOL      0.152594
    180 Ca1        -3.8060   -2.4890    0.4430 Ca        1 MOL      1.625624
    181 O27        -2.7640   -4.7900   -0.3530 oh        1 MOL     -0.762625
    182 H81        -3.1060   -5.6440   -0.6140 ho        1 MOL      0.356802
    183 H82        -1.9060   -4.7350   -0.7590 ho        1 MOL      0.356802
    184 O28        -2.0270   -2.8200    2.4630 oh        1 MOL     -0.762625
    185 H83        -1.2800   -3.3430    2.7500 ho        1 MOL      0.356802
    186 H84        -2.2420   -2.2600    3.2070 ho        1 MOL      0.356802
    187 O29        -5.4790   -1.9680    2.5130 oh        1 MOL     -0.762625
    188 H85        -6.3610   -1.5960    2.4910 ho        1 MOL      0.356802
    189 H86        -5.0840   -1.5800    3.2940 ho        1 MOL      0.356802
    190 O30        -4.6750   -4.7380    2.1390 oh        1 MOL     -0.762625
    191 H87        -4.8730   -5.4470    1.5360 ho        1 MOL      0.356802
    192 H88        -4.3420   -5.1770    2.9280 ho        1 MOL      0.356802
@<TRIPOS>BOND
     1    1    2 1   
     2    1    4 1   
     3    1    5 1   
     4    1    6 1   
     5    2    3 2   
     6    2    7 1   
     7    7    8 1   
     8    7   15 1   
     9    8    9 1   
    10    8   11 1   
    11    8   16 1   
    12    9   10 2   
    13    9   19 1   
    14   11   12 1   
    15   11   17 1   
    16   11   18 1   
    17   12   13 1   
    18   12   14 1   
    19   19   20 1   
    20   19   27 1   
    21   20   21 1   
    22   20   23 1   
    23   20   28 1   
    24   21   22 2   
    25   21   38 1   
    26   23   24 1   
    27   23   25 1   
    28   23   29 1   
    29   24   26 1   
    30   24   30 1   
    31   24   31 1   
    32   25   32 1   
    33   25   33 1   
    34   25   34 1   
    35   26   35 1   
    36   26   36 1   
    37   26   37 1   
    38   38   39 1   
    39   38   46 1   
    40   39   40 1   
    41   39   42 1   
    42   39   47 1   
    43   40   41 2   
    44   40   50 1   
    45   42   43 1   
    46   42   48 1   
    47   42   49 1   
    48   43   44 1   
    49   43   45 1   
    50   50   51 1   
    51   50   54 1   
    52   51   52 1   
    53   51   55 1   
    54   51   56 1   
    55   52   53 2   
    56   52   57 1   
    57   57   58 1   
    58   57   65 1   
    59   58   59 1   
    60   58   61 1   
    61   58   66 1   
    62   59   60 2   
    63   59   69 1   
    64   61   62 1   
    65   61   67 1   
    66   61   68 1   
    67   62   63 1   
    68   62   64 1   
    69   69   70 1   
    70   69   73 1   
    71   70   71 1   
    72   70   74 1   
    73   70   75 1   
    74   71   72 2   
    75   71   76 1   
    76   76   77 1   
    77   76   85 1   
    78   77   78 1   
    79   77   80 1   
    80   77   86 1   
    81   78   79 2   
    82   78   93 1   
    83   80   81 1   
    84   80   87 1   
    85   80   88 1   
    86   81   82 1   
    87   81   89 1   
    88   81   90 1   
    89   82   83 1   
    90   82   84 2   
    91   83   91 1   
    92   83   92 1   
    93   93   94 1   
    94   93  100 1   
    95   94   95 1   
    96   94   97 1   
    97   94  101 1   
    98   95   96 2   
    99   95  109 1   
   100   97   98 1   
   101   97   99 1   
   102   97  102 1   
   103   98  103 1   
   104   98  104 1   
   105   98  105 1   
   106   99  106 1   
   107   99  107 1   
   108   99  108 1   
   109  109  110 1   
   110  109  117 1   
   111  110  111 1   
   112  110  113 1   
   113  110  118 1   
   114  111  112 2   
   115  111  123 1   
   116  113  114 1   
   117  113  119 1   
   118  113  120 1   
   119  114  115 1   
   120  114  116 2   
   121  115  121 1   
   122  115  122 1   
   123  123  124 1   
   124  123  135 1   
   125  124  125 1   
   126  124  127 1   
   127  124  136 1   
   128  125  126 2   
   129  125  144 1   
   130  127  128 1   
   131  127  137 1   
   132  127  138 1   
   133  128  129 ar  
   134  128  130 ar  
   135  129  131 ar  
   136  129  139 1   
   137  130  132 ar  
   138  130  140 1   
   139  131  133 ar  
   140  131  141 1   
   141  132  133 ar  
   142  132  142 1   
   143  133  134 1   
   144  134  143 1   
   145  144  145 1   
   146  144  153 1   
   147  145  146 1   
   148  145  148 1   
   149  145  154 1   
   150  146  147 2   
   151  146  159 1   
   152  148  149 1   
   153  148  155 1   
   154  148  156 1   
   155  149  150 1   
   156  149  157 1   
   157  149  158 1   
   158  150  151 1   
   159  150  152 1   
   160  159  160 1   
   161  159  168 1   
   162  160  161 1   
   163  160  163 1   
   164  160  169 1   
   165  161  162 2   
   166  161  174 1   
   167  163  164 1   
   168  163  170 1   
   169  163  171 1   
   170  164  165 1   
   171  164  172 1   
   172  164  173 1   
   173  165  166 1   
   174  165  167 1   
   175  174  175 1   
   176  174  179 1   
   177  175  176 1   
   178  175  177 1   
   179  175  178 1   
   180  181  182 1   
   181  181  183 1   
   182  184  185 1   
   183  184  186 1   
   184  187  188 1   
   185  187  189 1   
   186  190  191 1   
   187  190  192 1   
@<TRIPOS>SUBSTRUCTURE
     1 MOL         1 TEMP              0 ****  ****    0 ROOT
