@<TRIPOS>MOLECULE
MOL
  192   187     1     0     0
SMALL
resp


@<TRIPOS>ATOM
      1 C1         -9.4180    1.0210   -1.5890 c3        1 MOL     -0.490144
      2 C2         -8.1780    0.3140   -0.9960 c         1 MOL      0.704473
      3 O1         -7.1960   -0.0760   -1.6730 o         1 MOL     -0.651872
      4 H1         -9.1620    2.0500   -1.8420 hc        1 MOL      0.129438
      5 H2         -9.7400    0.4950   -2.4880 hc        1 MOL      0.129438
      6 H3        -10.2240    1.0160   -0.8560 hc        1 MOL      0.129438
      7 N1         -8.3230    0.1410    0.3800 n         1 MOL     -0.542743
      8 C3         -7.2270   -0.1640    1.2210 c3        1 MOL     -0.151786
      9 C4         -6.7160   -1.5920    1.1540 c         1 MOL      0.391255
     10 O2         -6.3900   -2.1850    2.1850 o         1 MOL     -0.392034
     11 C5         -7.5470    0.3160    2.6350 c3        1 MOL     -0.388619
     12 C6         -8.6660   -0.4270    3.3480 c         1 MOL      0.812305
     13 O3         -8.7220   -0.2580    4.5530 o         1 MOL     -0.650050
     14 O4         -9.6240   -0.9530    2.7270 o         1 MOL     -0.650050
     15 H4         -9.1600    0.4510    0.8550 hn        1 MOL      0.328728
     16 H5         -6.4170    0.5010    0.9360 h1        1 MOL      0.232263
     17 H6         -7.8560    1.3580    2.5620 hc        1 MOL      0.135835
     18 H7         -6.6710    0.1210    3.2650 hc        1 MOL      0.135835
     19 N2         -6.6770   -2.1730   -0.0720 n         1 MOL     -0.276504
     20 C7         -6.2600   -3.6100   -0.1120 c3        1 MOL      0.114950
     21 C8         -4.7640   -3.7090    0.2570 c         1 MOL      0.331518
     22 O5         -4.4650   -4.6770    0.9640 o         1 MOL     -0.507076
     23 C9         -6.4340   -4.1910   -1.5120 c3        1 MOL     -0.154720
     24 C10        -7.8860   -4.4220   -1.9450 c3        1 MOL      0.058763
     25 C11        -8.0960   -4.8790   -3.3990 c3        1 MOL     -0.118866
     26 C12        -9.5650   -5.1070   -3.7110 c3        1 MOL      0.012950
     27 N3         -9.6530   -5.4620   -5.1370 n4        1 MOL     -0.128834
     28 H8         -7.0730   -1.6980   -0.8660 hn        1 MOL      0.271993
     29 H9         -6.8440   -4.2130    0.5810 h1        1 MOL      0.084917
     30 H10        -6.0060   -5.1930   -1.6230 hc        1 MOL      0.053004
     31 H11        -6.0030   -3.5030   -2.2350 hc        1 MOL      0.053004
     32 H12        -8.4960   -3.5500   -1.6930 hc        1 MOL      0.016775
     33 H13        -8.2770   -5.1590   -1.2320 hc        1 MOL      0.016775
     34 H14        -7.5260   -5.8140   -3.4240 hc        1 MOL      0.051899
     35 H15        -7.5630   -4.1950   -4.0670 hc        1 MOL      0.051899
     36 H16       -10.0650   -4.1780   -3.4300 hx        1 MOL      0.084845
     37 H17        -9.9310   -5.9030   -3.0650 hx        1 MOL      0.084845
     38 H18        -9.2620   -4.7320   -5.7190 hn        1 MOL      0.214873
     39 H19        -9.1400   -6.2920   -5.4010 hn        1 MOL      0.214873
     40 H20       -10.5940   -5.6290   -5.4750 hn        1 MOL      0.214873
     41 N4         -3.7850   -2.7770    0.0430 n         1 MOL     -0.237216
     42 C13        -3.6590   -1.6810   -0.9530 c3        1 MOL     -0.044544
     43 C14        -3.7630   -0.2880   -0.3080 c         1 MOL      0.104843
     44 O6         -3.7520   -0.1750    0.9330 o         1 MOL     -0.387034
     45 C15        -2.3380   -1.7590   -1.7130 c3        1 MOL     -0.150197
     46 C16        -1.0810   -2.1520   -0.8780 c         1 MOL      0.747527
     47 O7         -0.8660   -1.6400    0.1990 o         1 MOL     -0.699327
     48 O8         -0.2910   -2.9340   -1.3920 o         1 MOL     -0.699327
     49 H21        -2.9190   -2.9650    0.5190 hn        1 MOL      0.318306
     50 H22        -4.3930   -1.7110   -1.7560 h1        1 MOL      0.116613
     51 H23        -2.1360   -0.8470   -2.2810 hc        1 MOL      0.029684
     52 H24        -2.4260   -2.6010   -2.3950 hc        1 MOL      0.029684
     53 N5         -4.0660    0.7740   -1.0260 n         1 MOL     -0.091439
     54 C17        -4.2890    2.1240   -0.4270 c3        1 MOL     -0.225879
     55 C18        -3.1080    2.6600    0.3810 c         1 MOL      0.514678
     56 O9         -1.9910    2.0920    0.2640 o         1 MOL     -0.545416
     57 H25        -4.1670    0.6770   -2.0280 hn        1 MOL      0.256000
     58 H26        -5.1620    2.1410    0.2260 h1        1 MOL      0.099204
     59 H27        -4.3160    2.8630   -1.2300 h1        1 MOL      0.099204
     60 N6         -3.2680    3.7470    1.1570 n         1 MOL     -0.479311
     61 C19        -2.2610    4.5900    1.8330 c3        1 MOL      0.232672
     62 C20        -2.4450    6.0950    1.8470 c         1 MOL      0.519739
     63 O10        -3.5850    6.4480    1.6310 o         1 MOL     -0.558297
     64 C21        -2.1100    4.1580    3.3520 c3        1 MOL     -0.378723
     65 C22        -1.7790    2.7120    3.4250 c         1 MOL      0.738576
     66 O11        -2.4320    1.9100    4.1550 o         1 MOL     -0.667903
     67 O12        -0.7070    2.3030    2.9370 o         1 MOL     -0.667903
     68 H28        -4.2120    4.1050    1.1850 hn        1 MOL      0.315785
     69 H29        -1.3150    4.4650    1.2980 h1        1 MOL      0.038561
     70 H30        -3.0210    4.3970    3.9020 hc        1 MOL      0.107867
     71 H31        -1.3450    4.7960    3.7990 hc        1 MOL      0.107867
     72 N7         -1.4510    6.9690    1.9330 n         1 MOL     -0.470065
     73 C23        -0.0590    6.6710    2.2290 c3        1 MOL     -0.041130
     74 C24         0.7240    6.3490    0.8740 c         1 MOL      0.611367
     75 O13         0.2470    6.7390   -0.2170 o         1 MOL     -0.499688
     76 H32        -1.6330    7.9580    1.8400 hn        1 MOL      0.333902
     77 H33         0.1550    5.8990    2.9730 h1        1 MOL      0.063588
     78 H34         0.3420    7.6350    2.5540 h1        1 MOL      0.063588
     79 N8          1.8260    5.5420    0.9990 n         1 MOL     -0.704918
     80 C25         2.3970    4.8640   -0.1430 c3        1 MOL      0.020686
     81 C26         1.4120    3.7430   -0.6420 c         1 MOL      0.806617
     82 O14         0.7190    3.0730    0.1400 o         1 MOL     -0.670399
     83 C27         3.8370    4.4500    0.2060 c3        1 MOL      0.251487
     84 C28         4.7750    3.9240   -0.9430 c3        1 MOL     -0.019719
     85 O15         3.8440    3.4270    1.2290 oh        1 MOL     -0.631538
     86 H35         2.2640    5.4170    1.9060 hn        1 MOL      0.357819
     87 H36         2.5730    5.5350   -0.9890 h1        1 MOL      0.067321
     88 H37         4.3750    5.2260    0.7540 h1        1 MOL      0.052799
     89 H38         3.4170    3.7890    2.0060 ho        1 MOL      0.399891
     90 H39         4.9170    4.7560   -1.6270 hc        1 MOL      0.010982
     91 H40         5.7530    3.7960   -0.4890 hc        1 MOL      0.010982
     92 H41         4.4360    3.1070   -1.5680 hc        1 MOL      0.010982
     93 N9          1.3650    3.6360   -1.9640 n         1 MOL     -0.682239
     94 C29         0.6710    2.5340   -2.7780 c3        1 MOL      0.294784
     95 C30         1.0440    1.1150   -2.3260 c         1 MOL      0.172674
     96 O16         0.3150    0.5170   -1.4960 o         1 MOL     -0.488275
     97 C31        -0.7590    2.8010   -2.8750 c3        1 MOL      0.562480
     98 C32        -1.1880    4.2110   -2.9740 c3        1 MOL     -0.308549
     99 C33        -1.4240    1.8580   -3.8930 c3        1 MOL     -0.433224
    100 C34        -0.8340    4.8910   -4.3260 c3        1 MOL     -0.386918
    101 H42         1.8840    4.3510   -2.4580 hn        1 MOL      0.304986
    102 H43         0.9910    2.6430   -3.8180 h1        1 MOL     -0.053790
    103 H44        -1.1540    2.5940   -1.8770 hc        1 MOL     -0.098940
    104 H45        -0.8510    4.9080   -2.2170 hc        1 MOL      0.129033
    105 H46        -2.2770    4.0800   -2.9790 hc        1 MOL      0.129033
    106 H47        -0.8940    1.9850   -4.8330 hc        1 MOL      0.097630
    107 H48        -1.5000    0.8550   -3.4540 hc        1 MOL      0.097630
    108 H49        -2.4780    2.0940   -4.0110 hc        1 MOL      0.097630
    109 H50         0.2350    5.1400   -4.3390 hc        1 MOL      0.097265
    110 H51        -1.1980    4.4560   -5.2590 hc        1 MOL      0.097265
    111 H52        -1.3350    5.8380   -4.1220 hc        1 MOL      0.097265
    112 N10         2.1340    0.5950   -2.8650 n         1 MOL     -0.214548
    113 C35         2.6180   -0.7760   -2.7060 c3        1 MOL     -0.104639
    114 C36         4.1220   -0.9030   -2.6480 c         1 MOL      0.426537
    115 O17         4.7190   -2.0140   -2.7230 o         1 MOL     -0.542523
    116 C37         2.1020   -1.7890   -3.8260 c3        1 MOL      0.512362
    117 C38         2.4610   -1.4080   -5.2640 c3        1 MOL     -0.211425
    118 O18         0.6920   -1.8180   -3.7120 oh        1 MOL     -0.630449
    119 H53         2.5400    1.1370   -3.6180 hn        1 MOL      0.256607
    120 H54         2.1550   -1.1610   -1.7980 h1        1 MOL      0.151013
    121 H55         2.5160   -2.7820   -3.6360 h1        1 MOL     -0.014119
    122 H56         0.4110   -2.2330   -2.8920 ho        1 MOL      0.351246
    123 H57         2.1340   -2.2200   -5.9040 hc        1 MOL      0.037315
    124 H58         1.9830   -0.4520   -5.4780 hc        1 MOL      0.037315
    125 H59         3.5500   -1.3490   -5.3100 hc        1 MOL      0.037315
    126 N11         4.8900    0.2260   -2.6070 n         1 MOL     -0.288587
    127 C39         6.4130    0.2370   -2.6480 c3        1 MOL      0.165276
    128 C40         6.9540   -0.3540   -1.3850 c         1 MOL      0.267559
    129 O19         7.2640    0.3330   -0.4250 o         1 MOL     -0.442822
    130 C41         7.0030    1.6220   -2.7870 c3        1 MOL      0.472898
    131 C42         8.5310    1.4540   -3.0450 c3        1 MOL     -0.349160
    132 O20         6.4590    2.3910   -3.8040 oh        1 MOL     -0.661600
    133 H60         4.4230    1.0910   -2.8180 hn        1 MOL      0.171564
    134 H61         6.7040   -0.4250   -3.4650 h1        1 MOL      0.042020
    135 H62         6.7980    2.1790   -1.8810 h1        1 MOL     -0.071704
    136 H63         6.7510    3.2920   -3.6450 ho        1 MOL      0.414450
    137 H64         8.9500    0.7860   -2.2990 hc        1 MOL      0.083891
    138 H65         8.6570    1.1020   -4.0670 hc        1 MOL      0.083891
    139 H66         9.0630    2.4100   -2.9370 hc        1 MOL      0.083891
    140 N12         6.8330   -1.6740   -1.2390 n         1 MOL     -0.584216
    141 C43         6.5880   -2.4900   -0.0580 c3        1 MOL      0.226917
    142 C44         5.2930   -2.0600    0.7640 c         1 MOL      0.587833
    143 O21         4.9350   -0.9280    0.9100 o         1 MOL     -0.470839
    144 C45         7.7950   -2.5590    0.8350 c3        1 MOL     -0.753909
    145 C46         9.1750   -2.5790    0.2100 c3        1 MOL      0.408402
    146 C47        10.1970   -2.9490    1.1540 c3        1 MOL      0.071749
    147 C48        11.6490   -2.7400    0.6670 c3        1 MOL     -0.284747
    148 N13        11.8920   -3.5490   -0.5490 n4        1 MOL     -0.169535
    149 H67         6.4670   -2.0230   -2.1160 hn        1 MOL      0.325864
    150 H68         6.4920   -3.4920   -0.4930 h1        1 MOL      0.062977
    151 H69         7.6240   -3.5140    1.3320 hc        1 MOL      0.219256
    152 H70         7.7710   -1.7570    1.5710 hc        1 MOL      0.219256
    153 H71         9.4630   -1.6060   -0.1860 hc        1 MOL     -0.026680
    154 H72         9.2020   -3.2470   -0.6530 hc        1 MOL     -0.026680
    155 H73        10.0320   -3.9770    1.4710 hc        1 MOL      0.002851
    156 H74        10.1230   -2.4160    2.1060 hc        1 MOL      0.002851
    157 H75        12.3380   -3.1370    1.4080 hx        1 MOL      0.173686
    158 H76        11.7800   -1.6540    0.5970 hx        1 MOL      0.173686
    159 H77        11.3120   -3.1610   -1.2830 hn        1 MOL      0.211666
    160 H78        12.8680   -3.5500   -0.7900 hn        1 MOL      0.211666
    161 H79        11.5040   -4.4610   -0.3500 hn        1 MOL      0.211666
    162 N14         4.6370   -2.9820    1.5170 n         1 MOL     -0.670659
    163 C49         3.5020   -2.6240    2.3520 c3        1 MOL      0.641245
    164 C50         2.1360   -2.4670    1.6810 c         1 MOL      0.140422
    165 O22         1.4540   -1.4490    1.9220 o         1 MOL     -0.527276
    166 C51         3.3630   -3.4740    3.6090 c3        1 MOL      0.279276
    167 C52         4.6550   -3.5250    4.4290 c3        1 MOL     -0.259814
    168 C53         4.4430   -4.5080    5.5940 c         1 MOL      0.606164
    169 O23         4.1840   -5.7390    5.3490 o         1 MOL     -0.615598
    170 O24         4.3670   -4.0650    6.8090 o         1 MOL     -0.615598
    171 H80         4.9100   -3.9550    1.5170 hn        1 MOL      0.319455
    172 H81         3.6590   -1.5970    2.7120 h1        1 MOL     -0.095607
    173 H82         3.1970   -4.4690    3.1990 hc        1 MOL     -0.063730
    174 H83         2.4420   -3.0940    4.0520 hc        1 MOL     -0.063730
    175 H84         4.9230   -2.5270    4.7640 hc        1 MOL      0.005537
    176 H85         5.4630   -3.8780    3.7960 hc        1 MOL      0.005537
    177 N15         1.7250   -3.3230    0.7140 n         1 MOL     -0.199949
    178 C54         2.3250   -4.5190    0.1440 c3        1 MOL     -0.071404
    179 H86         2.4460   -5.2710    0.9240 h1        1 MOL      0.035110
    180 H87         1.6800   -4.9110   -0.6420 h1        1 MOL      0.035110
    181 H88         3.3010   -4.2720   -0.2760 h1        1 MOL      0.035110
    182 H89         0.7890   -3.1530    0.3760 hn        1 MOL      0.308414
    183 Ca1         0.2150    0.5810    1.2390 Ca        1 MOL      1.809969
    184 O25         1.7510    0.9090    3.6100 oh        1 MOL     -0.902360
    185 H90         1.8890    0.2590    4.3060 ho        1 MOL      0.426458
    186 H91         2.4550    1.5470    3.7520 ho        1 MOL      0.426458
    187 O26         2.7260    0.8150    0.4810 oh        1 MOL     -0.902360
    188 H92         3.2120    1.5450    0.8770 ho        1 MOL      0.426458
    189 H93         3.3900    0.1240    0.3770 ho        1 MOL      0.426458
    190 O27        -1.9170   -0.3710    2.6940 oh        1 MOL     -0.902360
    191 H94        -2.0670    0.4000    3.2360 ho        1 MOL      0.426458
    192 H95        -2.6350   -0.3630    2.0640 ho        1 MOL      0.426458
@<TRIPOS>BOND
     1    1    2 1   
     2    1    4 1   
     3    1    5 1   
     4    1    6 1   
     5    2    3 2   
     6    2    7 1   
     7    7    8 1   
     8    7   15 1   
     9    8    9 1   
    10    8   11 1   
    11    8   16 1   
    12    9   10 2   
    13    9   19 1   
    14   11   12 1   
    15   11   17 1   
    16   11   18 1   
    17   12   13 1   
    18   12   14 1   
    19   19   20 1   
    20   19   28 1   
    21   20   21 1   
    22   20   23 1   
    23   20   29 1   
    24   21   22 2   
    25   21   41 1   
    26   23   24 1   
    27   23   30 1   
    28   23   31 1   
    29   24   25 1   
    30   24   32 1   
    31   24   33 1   
    32   25   26 1   
    33   25   34 1   
    34   25   35 1   
    35   26   27 1   
    36   26   36 1   
    37   26   37 1   
    38   27   38 1   
    39   27   39 1   
    40   27   40 1   
    41   41   42 1   
    42   41   49 1   
    43   42   43 1   
    44   42   45 1   
    45   42   50 1   
    46   43   44 2   
    47   43   53 1   
    48   45   46 1   
    49   45   51 1   
    50   45   52 1   
    51   46   47 1   
    52   46   48 1   
    53   53   54 1   
    54   53   57 1   
    55   54   55 1   
    56   54   58 1   
    57   54   59 1   
    58   55   56 2   
    59   55   60 1   
    60   60   61 1   
    61   60   68 1   
    62   61   62 1   
    63   61   64 1   
    64   61   69 1   
    65   62   63 2   
    66   62   72 1   
    67   64   65 1   
    68   64   70 1   
    69   64   71 1   
    70   65   66 1   
    71   65   67 1   
    72   72   73 1   
    73   72   76 1   
    74   73   74 1   
    75   73   77 1   
    76   73   78 1   
    77   74   75 2   
    78   74   79 1   
    79   79   80 1   
    80   79   86 1   
    81   80   81 1   
    82   80   83 1   
    83   80   87 1   
    84   81   82 2   
    85   81   93 1   
    86   83   84 1   
    87   83   85 1   
    88   83   88 1   
    89   84   90 1   
    90   84   91 1   
    91   84   92 1   
    92   85   89 1   
    93   93   94 1   
    94   93  101 1   
    95   94   95 1   
    96   94   97 1   
    97   94  102 1   
    98   95   96 2   
    99   95  112 1   
   100   97   98 1   
   101   97   99 1   
   102   97  103 1   
   103   98  100 1   
   104   98  104 1   
   105   98  105 1   
   106   99  106 1   
   107   99  107 1   
   108   99  108 1   
   109  100  109 1   
   110  100  110 1   
   111  100  111 1   
   112  112  113 1   
   113  112  119 1   
   114  113  114 1   
   115  113  116 1   
   116  113  120 1   
   117  114  115 2   
   118  114  126 1   
   119  116  117 1   
   120  116  118 1   
   121  116  121 1   
   122  117  123 1   
   123  117  124 1   
   124  117  125 1   
   125  118  122 1   
   126  126  127 1   
   127  126  133 1   
   128  127  128 1   
   129  127  130 1   
   130  127  134 1   
   131  128  129 2   
   132  128  140 1   
   133  130  131 1   
   134  130  132 1   
   135  130  135 1   
   136  131  137 1   
   137  131  138 1   
   138  131  139 1   
   139  132  136 1   
   140  140  141 1   
   141  140  149 1   
   142  141  142 1   
   143  141  144 1   
   144  141  150 1   
   145  142  143 2   
   146  142  162 1   
   147  144  145 1   
   148  144  151 1   
   149  144  152 1   
   150  145  146 1   
   151  145  153 1   
   152  145  154 1   
   153  146  147 1   
   154  146  155 1   
   155  146  156 1   
   156  147  148 1   
   157  147  157 1   
   158  147  158 1   
   159  148  159 1   
   160  148  160 1   
   161  148  161 1   
   162  162  163 1   
   163  162  171 1   
   164  163  164 1   
   165  163  166 1   
   166  163  172 1   
   167  164  165 2   
   168  164  177 1   
   169  166  167 1   
   170  166  173 1   
   171  166  174 1   
   172  167  168 1   
   173  167  175 1   
   174  167  176 1   
   175  168  169 1   
   176  168  170 1   
   177  177  178 1   
   178  177  182 1   
   179  178  179 1   
   180  178  180 1   
   181  178  181 1   
   182  184  185 1   
   183  184  186 1   
   184  187  188 1   
   185  187  189 1   
   186  190  191 1   
   187  190  192 1   
@<TRIPOS>SUBSTRUCTURE
     1 MOL         1 TEMP              0 ****  ****    0 ROOT
