@<TRIPOS>MOLECULE
MOL
  188   182     1     0     0
SMALL
resp


@<TRIPOS>ATOM
      1 C1          6.2800    3.6290    2.4790 c3        1 MOL     -0.381815
      2 C2          6.6340    2.9390    1.1440 c         1 MOL      0.680455
      3 O1          6.0170    1.9040    0.9440 o         1 MOL     -0.571437
      4 H1          6.5640    2.9810    3.3090 hc        1 MOL      0.101064
      5 H2          6.8190    4.5730    2.5540 hc        1 MOL      0.101064
      6 H3          5.2070    3.8190    2.5160 hc        1 MOL      0.101064
      7 N1          7.6120    3.3640    0.3730 n         1 MOL     -0.710548
      8 C3          8.0520    2.8690   -0.9410 c3        1 MOL      0.521732
      9 C4          8.2460    1.2980   -0.9890 c         1 MOL      0.271812
     10 O2          8.2030    0.6450   -2.0180 o         1 MOL     -0.386395
     11 C5          7.1120    3.5150   -1.9980 c3        1 MOL     -0.342156
     12 C6          7.4290    3.1830   -3.3770 c         1 MOL      0.670052
     13 O3          8.6030    2.9410   -3.6730 o         1 MOL     -0.646922
     14 O4          6.5010    3.1340   -4.2560 o         1 MOL     -0.646922
     15 H4          8.0380    4.2450    0.6150 hn        1 MOL      0.341434
     16 H5          9.0350    3.3120   -1.1290 h1        1 MOL     -0.040186
     17 H6          7.1680    4.5730   -1.7450 hc        1 MOL      0.087388
     18 H7          6.1120    3.1830   -1.7080 hc        1 MOL      0.087388
     19 N2          8.6050    0.7570    0.1890 n         1 MOL     -0.249862
     20 C7          8.8350   -0.6250    0.5530 c3        1 MOL     -0.037578
     21 C8          7.5800   -1.4640    0.8010 c         1 MOL      0.566593
     22 O5          7.5950   -2.6400    1.0680 o         1 MOL     -0.613370
     23 C9          9.6760   -0.8120    1.8390 c3        1 MOL      0.029964
     24 C10         8.9830   -0.2080    3.0860 c3        1 MOL      0.002272
     25 C11         9.2210   -1.1000    4.3190 c3        1 MOL      0.012539
     26 C12         8.1940   -2.2710    4.3690 c3        1 MOL     -0.066167
     27 N3          8.3360   -2.9150    5.6210 n4        1 MOL     -0.155520
     28 H8          9.1270    1.3960    0.7680 hn        1 MOL      0.180124
     29 H9          9.3500   -1.1450   -0.2620 h1        1 MOL      0.100381
     30 H10        10.6410   -0.3400    1.6900 hc        1 MOL      0.017332
     31 H11         9.8960   -1.8730    1.9980 hc        1 MOL      0.017332
     32 H12         7.9480    0.0700    2.9380 hc        1 MOL     -0.001235
     33 H13         9.5560    0.6680    3.4020 hc        1 MOL     -0.001235
     34 H14         9.1610   -0.4830    5.2160 hc        1 MOL      0.016506
     35 H15        10.2520   -1.4560    4.2160 hc        1 MOL      0.016506
     36 H16         8.4260   -2.9470    3.5450 hx        1 MOL      0.128639
     37 H17         7.2280   -1.7830    4.2300 hx        1 MOL      0.128639
     38 H18         9.2580   -3.1960    5.9230 hn        1 MOL      0.192813
     39 H19         8.0960   -2.3190    6.4020 hn        1 MOL      0.192813
     40 H20         7.7890   -3.7700    5.6530 hn        1 MOL      0.192813
     41 N4          6.4000   -0.8260    0.7440 n         1 MOL     -0.362992
     42 C13         5.1570   -1.5700    0.8210 c3        1 MOL      0.041054
     43 C14         4.9570   -2.5470   -0.2850 c         1 MOL      0.677378
     44 O6          5.3370   -2.2870   -1.4490 o         1 MOL     -0.520827
     45 C15         4.0320   -0.5670    1.0480 c3        1 MOL     -0.134223
     46 C16         2.6290   -1.2010    1.2620 c         1 MOL      0.618596
     47 O7          2.1630   -1.6310    2.3370 o         1 MOL     -0.749686
     48 O8          1.9530   -1.3700    0.2470 o         1 MOL     -0.749686
     49 H21         6.3790    0.1840    0.6360 hn        1 MOL      0.232293
     50 H22         5.2370   -2.1530    1.7360 h1        1 MOL     -0.052661
     51 H23         3.9690    0.1600    0.2360 hc        1 MOL      0.087652
     52 H24         4.2180    0.0930    1.8890 hc        1 MOL      0.087652
     53 N5          4.3850   -3.6560    0.0320 n         1 MOL     -0.336182
     54 C17         4.1740   -4.7820   -0.8450 c3        1 MOL     -0.146470
     55 C18         3.2480   -4.5660   -2.0350 c         1 MOL      0.546409
     56 O9          3.2720   -5.4230   -2.9200 o         1 MOL     -0.542517
     57 H25         4.1590   -3.7930    1.0090 hn        1 MOL      0.238848
     58 H26         3.6680   -5.5620   -0.2650 h1        1 MOL      0.091755
     59 H27         5.0900   -5.2160   -1.2550 h1        1 MOL      0.091755
     60 N6          2.4380   -3.5120   -2.0060 n         1 MOL     -0.221446
     61 C19         1.8300   -2.9930   -3.2660 c3        1 MOL     -0.074267
     62 C20         1.9700   -1.4940   -3.4560 c         1 MOL      0.445350
     63 O10         1.2470   -0.8280   -4.2200 o         1 MOL     -0.524712
     64 C21         0.3810   -3.5180   -3.4340 c3        1 MOL     -0.395266
     65 C22        -0.7420   -2.9920   -2.5540 c         1 MOL      0.802550
     66 N7         -1.9840   -3.2150   -2.8480 n         1 MOL     -0.877707
     67 O11        -0.4590   -2.2380   -1.6490 o         1 MOL     -0.639497
     68 H28         2.3390   -2.9120   -1.2050 hn        1 MOL      0.180162
     69 H29         2.3440   -3.3120   -4.1610 h1        1 MOL      0.159917
     70 H30         0.4420   -4.5730   -3.1760 hc        1 MOL      0.136568
     71 H31         0.0720   -3.3620   -4.4640 hc        1 MOL      0.136568
     72 H32        -2.3210   -3.7690   -3.6280 hn        1 MOL      0.391024
     73 H33        -2.6320   -2.7940   -2.1980 hn        1 MOL      0.391024
     74 N8          2.9250   -0.8570   -2.7830 n         1 MOL     -0.079538
     75 C23         3.3080    0.5330   -2.9080 c3        1 MOL     -0.191091
     76 C24         2.6620    1.5750   -2.0380 c         1 MOL      0.563660
     77 O12         3.0580    2.7430   -2.0540 o         1 MOL     -0.534196
     78 H34         3.5000   -1.3870   -2.1560 hn        1 MOL      0.076816
     79 H35         3.1410    0.8710   -3.9390 h1        1 MOL      0.138671
     80 H36         4.3680    0.5930   -2.6940 h1        1 MOL      0.138671
     81 N9          1.6240    1.2750   -1.2280 n         1 MOL     -0.382334
     82 C25         0.9340    2.0970   -0.3090 c3        1 MOL      0.174993
     83 C26        -0.5530    1.5980   -0.2020 c         1 MOL      0.144171
     84 O13        -0.7270    0.4070   -0.0090 o         1 MOL     -0.429988
     85 C27         1.6390    2.2860    0.9980 c3        1 MOL     -0.336319
     86 C28         1.0810    3.4060    1.8010 ca        1 MOL      0.236657
     87 C29         1.3350    4.7900    1.4920 ca        1 MOL     -0.415766
     88 C30         0.2890    3.0840    2.9310 ca        1 MOL     -0.415766
     89 C31         0.9410    5.8620    2.2810 ca        1 MOL      0.036172
     90 C32        -0.0870    4.2030    3.7090 ca        1 MOL      0.036172
     91 C33         0.2430    5.5090    3.4380 ca        1 MOL      0.102197
     92 O14        -0.2030    6.4790    4.2730 oh        1 MOL     -0.451678
     93 H37         1.4740    0.2750   -1.1770 hn        1 MOL      0.253575
     94 H38         0.9290    3.0860   -0.7630 h1        1 MOL      0.042917
     95 H39         2.6520    2.6140    0.7770 hc        1 MOL      0.140488
     96 H40         1.6290    1.3240    1.5240 hc        1 MOL      0.140488
     97 H41         2.0610    4.8840    0.6900 ha        1 MOL      0.198850
     98 H42        -0.0460    2.0710    3.1320 ha        1 MOL      0.198850
     99 H43         1.1780    6.9120    2.1530 ha        1 MOL      0.087617
    100 H44        -0.6340    3.9750    4.6140 ha        1 MOL      0.087617
    101 H45        -1.0020    6.3150    4.7730 ho        1 MOL      0.350893
    102 N10        -1.5520    2.4780   -0.1060 n         1 MOL     -0.189838
    103 C34        -3.0250    2.1670   -0.1030 c3        1 MOL     -0.006700
    104 C35        -3.4470    1.1710   -1.1600 c         1 MOL      0.065008
    105 O15        -4.1920    0.2430   -0.8710 o         1 MOL     -0.488916
    106 C36        -3.8920    3.4280   -0.2570 c3        1 MOL     -0.031882
    107 C37        -3.5310    4.6030    0.6600 c3        1 MOL     -0.134593
    108 C38        -5.4140    3.0770   -0.1180 c3        1 MOL     -0.549191
    109 C39        -3.4870    4.1480    2.1200 c3        1 MOL     -0.322140
    110 H46        -1.2230    3.4330   -0.0640 hn        1 MOL      0.280522
    111 H47        -3.3390    1.6520    0.7980 h1        1 MOL      0.179252
    112 H48        -3.7380    3.8110   -1.2650 hc        1 MOL      0.015353
    113 H49        -4.4020    5.2520    0.7760 hc        1 MOL      0.106226
    114 H50        -2.6030    5.0990    0.3880 hc        1 MOL      0.106226
    115 H51        -5.6350    2.5780    0.8270 hc        1 MOL      0.181509
    116 H52        -5.9470    4.0100    0.0370 hc        1 MOL      0.181509
    117 H53        -5.7880    2.5460   -0.9890 hc        1 MOL      0.181509
    118 H54        -2.7260    3.3960    2.3100 hc        1 MOL      0.088897
    119 H55        -3.2660    5.0380    2.7140 hc        1 MOL      0.088897
    120 H56        -4.4420    3.7660    2.4600 hc        1 MOL      0.088897
    121 N11        -2.9840    1.3230   -2.4050 n         1 MOL      0.089786
    122 C40        -3.1630    0.2770   -3.4980 c3        1 MOL     -0.013094
    123 C41        -4.5810    0.0640   -3.9070 c         1 MOL      0.211680
    124 O16        -5.0370   -1.0740   -4.0870 o         1 MOL     -0.452785
    125 C42        -2.3160    0.7050   -4.6830 c3        1 MOL      0.133024
    126 O17        -1.0490    1.0830   -4.1460 oh        1 MOL     -0.583273
    127 H57        -2.4060    2.1330   -2.5760 hn        1 MOL      0.174767
    128 H58        -2.7810   -0.6880   -3.1660 h1        1 MOL      0.165925
    129 H59        -2.7860    1.5950   -5.1010 h1        1 MOL      0.052713
    130 H60        -2.1250   -0.1540   -5.3310 h1        1 MOL      0.052713
    131 H61        -0.3080    0.4910   -4.3010 ho        1 MOL      0.388395
    132 N12        -5.4500    1.1260   -3.9260 n         1 MOL     -0.133704
    133 C43        -6.8640    1.1150   -4.1590 c3        1 MOL     -0.031333
    134 C44        -7.6800    0.3550   -3.0550 c         1 MOL      0.596344
    135 O18        -8.9360    0.2450   -3.1350 o         1 MOL     -0.555659
    136 C45        -7.0010    0.6560   -5.5980 c3        1 MOL     -0.417691
    137 H62        -5.0580    2.0640   -3.8940 hn        1 MOL      0.195554
    138 H63        -7.1410    2.1350   -3.9190 h1        1 MOL      0.095276
    139 H64        -8.0430    0.7470   -5.9050 hc        1 MOL      0.134256
    140 H65        -6.3970    1.1730   -6.3340 hc        1 MOL      0.134256
    141 H66        -6.7040   -0.3880   -5.6860 hc        1 MOL      0.134256
    142 N13        -7.0240   -0.0760   -1.9470 n         1 MOL     -0.545090
    143 C46        -7.4830   -1.0180   -0.9270 c3        1 MOL      0.435147
    144 C47        -8.0480   -0.4270    0.3860 c         1 MOL      0.432564
    145 O19        -7.4470    0.5210    0.9360 o         1 MOL     -0.500328
    146 C48        -6.3900   -2.1220   -0.8240 c3        1 MOL     -0.133092
    147 H67        -6.0320    0.0790   -1.8740 hn        1 MOL      0.274210
    148 H68        -8.2760   -1.5680   -1.4310 h1        1 MOL     -0.040642
    149 H69        -6.7290   -2.9610   -0.2280 hc        1 MOL      0.020594
    150 H70        -6.0990   -2.3850   -1.8420 hc        1 MOL      0.020594
    151 H71        -5.5350   -1.6790   -0.3190 hc        1 MOL      0.020594
    152 N14        -9.0660   -1.0700    0.9100 n         1 MOL     -0.573629
    153 C49        -9.7070   -0.7380    2.2600 c3        1 MOL     -0.048852
    154 C50       -10.2860    0.7140    2.4270 c         1 MOL      0.339138
    155 O20       -10.5810    1.1190    3.5510 o         1 MOL     -0.471588
    156 C51        -8.8710   -1.2030    3.4630 c3        1 MOL      0.598951
    157 C52        -8.3520   -2.6360    3.4180 c3        1 MOL     -0.387458
    158 C53        -7.7490   -3.0580    4.7340 c         1 MOL      0.735124
    159 O21        -8.0640   -2.5420    5.8170 o         1 MOL     -0.692628
    160 O22        -6.7860   -3.8800    4.6810 o         1 MOL     -0.692628
    161 H72        -9.4140   -1.8730    0.3990 hn        1 MOL      0.321992
    162 H73       -10.6070   -1.3480    2.2660 h1        1 MOL      0.074048
    163 H74        -9.5090   -1.0660    4.3320 hc        1 MOL     -0.100248
    164 H75        -8.0170   -0.5350    3.6190 hc        1 MOL     -0.100248
    165 H76        -7.5970   -2.7200    2.6370 hc        1 MOL      0.024124
    166 H77        -9.2160   -3.2240    3.1330 hc        1 MOL      0.024124
    167 N15       -10.3210    1.4830    1.3280 n         1 MOL     -0.174583
    168 C54       -10.5560    2.9300    1.3630 c3        1 MOL     -0.275667
    169 H78       -10.7560    3.2890    0.3540 h1        1 MOL      0.117706
    170 H79       -11.4130    3.1450    2.0010 h1        1 MOL      0.117706
    171 H80        -9.6720    3.4320    1.7590 h1        1 MOL      0.117706
    172 H81       -10.1020    1.0420    0.4450 hn        1 MOL      0.215630
    173 Ca1        -0.3860   -2.2100    1.0710 Ca        1 MOL      1.808839
    174 O23        -0.4060   -3.7680    3.4100 oh        1 MOL     -0.856901
    175 H82        -0.8220   -3.3950    4.1890 ho        1 MOL      0.426185
    176 H83         0.2120   -4.4250    3.7480 ho        1 MOL      0.426185
    177 O24        -1.9220   -4.6110    0.6700 oh        1 MOL     -0.856901
    178 H84        -2.8670   -4.6690    0.5350 ho        1 MOL      0.426185
    179 H85        -1.6430   -5.5250    0.7790 ho        1 MOL      0.426185
    180 O25        -0.9770   -0.7520    3.2400 oh        1 MOL     -0.856901
    181 H86        -0.2630   -0.4970    3.8210 ho        1 MOL      0.426185
    182 H87        -1.6900   -0.1480    3.4510 ho        1 MOL      0.426185
    183 O26         1.4400   -4.4130    0.8620 oh        1 MOL     -0.856901
    184 H88         2.2560   -4.4140    1.3570 ho        1 MOL      0.426185
    185 H89         1.2240   -5.3430    0.7530 ho        1 MOL      0.426185
    186 O27        -2.8990   -1.7890    0.2750 oh        1 MOL     -0.856901
    187 H90        -3.4550   -2.3690    0.8030 ho        1 MOL      0.426185
    188 H91        -3.4800   -1.1020   -0.0300 ho        1 MOL      0.426185
@<TRIPOS>BOND
     1    1    2 1   
     2    1    4 1   
     3    1    5 1   
     4    1    6 1   
     5    2    3 2   
     6    2    7 1   
     7    7    8 1   
     8    7   15 1   
     9    8    9 1   
    10    8   11 1   
    11    8   16 1   
    12    9   10 2   
    13    9   19 1   
    14   11   12 1   
    15   11   17 1   
    16   11   18 1   
    17   12   13 1   
    18   12   14 1   
    19   19   20 1   
    20   19   28 1   
    21   20   21 1   
    22   20   23 1   
    23   20   29 1   
    24   21   22 2   
    25   21   41 1   
    26   23   24 1   
    27   23   30 1   
    28   23   31 1   
    29   24   25 1   
    30   24   32 1   
    31   24   33 1   
    32   25   26 1   
    33   25   34 1   
    34   25   35 1   
    35   26   27 1   
    36   26   36 1   
    37   26   37 1   
    38   27   38 1   
    39   27   39 1   
    40   27   40 1   
    41   41   42 1   
    42   41   49 1   
    43   42   43 1   
    44   42   45 1   
    45   42   50 1   
    46   43   44 2   
    47   43   53 1   
    48   45   46 1   
    49   45   51 1   
    50   45   52 1   
    51   46   47 1   
    52   46   48 1   
    53   53   54 1   
    54   53   57 1   
    55   54   55 1   
    56   54   58 1   
    57   54   59 1   
    58   55   56 2   
    59   55   60 1   
    60   60   61 1   
    61   60   68 1   
    62   61   62 1   
    63   61   64 1   
    64   61   69 1   
    65   62   63 2   
    66   62   74 1   
    67   64   65 1   
    68   64   70 1   
    69   64   71 1   
    70   65   66 1   
    71   65   67 2   
    72   66   72 1   
    73   66   73 1   
    74   74   75 1   
    75   74   78 1   
    76   75   76 1   
    77   75   79 1   
    78   75   80 1   
    79   76   77 2   
    80   76   81 1   
    81   81   82 1   
    82   81   93 1   
    83   82   83 1   
    84   82   85 1   
    85   82   94 1   
    86   83   84 2   
    87   83  102 1   
    88   85   86 1   
    89   85   95 1   
    90   85   96 1   
    91   86   87 ar  
    92   86   88 ar  
    93   87   89 ar  
    94   87   97 1   
    95   88   90 ar  
    96   88   98 1   
    97   89   91 ar  
    98   89   99 1   
    99   90   91 ar  
   100   90  100 1   
   101   91   92 1   
   102   92  101 1   
   103  102  103 1   
   104  102  110 1   
   105  103  104 1   
   106  103  106 1   
   107  103  111 1   
   108  104  105 2   
   109  104  121 1   
   110  106  107 1   
   111  106  108 1   
   112  106  112 1   
   113  107  109 1   
   114  107  113 1   
   115  107  114 1   
   116  108  115 1   
   117  108  116 1   
   118  108  117 1   
   119  109  118 1   
   120  109  119 1   
   121  109  120 1   
   122  121  122 1   
   123  121  127 1   
   124  122  123 1   
   125  122  125 1   
   126  122  128 1   
   127  123  124 2   
   128  123  132 1   
   129  125  126 1   
   130  125  129 1   
   131  125  130 1   
   132  126  131 1   
   133  132  133 1   
   134  132  137 1   
   135  133  134 1   
   136  133  136 1   
   137  133  138 1   
   138  134  135 2   
   139  134  142 1   
   140  136  139 1   
   141  136  140 1   
   142  136  141 1   
   143  142  143 1   
   144  142  147 1   
   145  143  144 1   
   146  143  146 1   
   147  143  148 1   
   148  144  145 2   
   149  144  152 1   
   150  146  149 1   
   151  146  150 1   
   152  146  151 1   
   153  152  153 1   
   154  152  161 1   
   155  153  154 1   
   156  153  156 1   
   157  153  162 1   
   158  154  155 2   
   159  154  167 1   
   160  156  157 1   
   161  156  163 1   
   162  156  164 1   
   163  157  158 1   
   164  157  165 1   
   165  157  166 1   
   166  158  159 1   
   167  158  160 1   
   168  167  168 1   
   169  167  172 1   
   170  168  169 1   
   171  168  170 1   
   172  168  171 1   
   173  174  175 1   
   174  174  176 1   
   175  177  178 1   
   176  177  179 1   
   177  180  181 1   
   178  180  182 1   
   179  183  184 1   
   180  183  185 1   
   181  186  187 1   
   182  186  188 1   
@<TRIPOS>SUBSTRUCTURE
     1 MOL         1 TEMP              0 ****  ****    0 ROOT
