@<TRIPOS>MOLECULE
MOL
  181   177     1     0     0
SMALL
resp


@<TRIPOS>ATOM
      1 C1          3.1710   -0.9270    4.5230 c3        1 MOL     -0.219746
      2 C2          4.4460   -0.1630    4.0150 c         1 MOL      0.643566
      3 O1          4.4060    1.0060    3.6680 o         1 MOL     -0.598473
      4 H1          2.6120   -0.2850    5.2050 hc        1 MOL      0.046983
      5 H2          2.5410   -1.1890    3.6740 hc        1 MOL      0.046983
      6 H3          3.4740   -1.8340    5.0450 hc        1 MOL      0.046983
      7 N1          5.6310   -0.8500    3.9200 n         1 MOL     -0.549968
      8 C3          6.8600   -0.3730    3.4300 c3        1 MOL      0.206773
      9 C4          6.9260   -0.4430    1.8680 c         1 MOL      0.867273
     10 O2          6.4760   -1.4400    1.2630 o         1 MOL     -0.546012
     11 C5          8.0240   -1.2320    4.0880 c3        1 MOL     -0.313991
     12 C6          7.9200   -2.7380    3.9090 c         1 MOL      0.676834
     13 O3          8.9370   -3.3170    3.4630 o         1 MOL     -0.686478
     14 O4          6.8190   -3.3330    4.0320 o         1 MOL     -0.686478
     15 H4          5.6680   -1.8280    4.1520 hn        1 MOL      0.278481
     16 H5          6.9830    0.6810    3.6360 h1        1 MOL     -0.029781
     17 H6          8.1260   -0.9460    5.1320 hc        1 MOL      0.042543
     18 H7          8.9020   -0.9000    3.5260 hc        1 MOL      0.042543
     19 N2          7.4930    0.6150    1.2590 n         1 MOL     -0.925397
     20 C7          7.5820    0.6720   -0.1880 c3        1 MOL      0.658788
     21 C8          6.1550    0.7300   -0.8240 c         1 MOL      0.340328
     22 O5          5.1270    0.9870   -0.1890 o         1 MOL     -0.446945
     23 C9          8.5470    1.7460   -0.6060 c3        1 MOL     -0.325475
     24 H8          7.8070    1.3680    1.8460 hn        1 MOL      0.366713
     25 H9          8.0290   -0.2780   -0.4980 h1        1 MOL     -0.028802
     26 H10         9.5810    1.4260   -0.4750 hc        1 MOL      0.057008
     27 H11         8.2700    1.8750   -1.6560 hc        1 MOL      0.057008
     28 H12         8.3710    2.6450   -0.0110 hc        1 MOL      0.057008
     29 N3          6.1790    0.4220   -2.1420 n         1 MOL     -0.618689
     30 C10         4.9620    0.3080   -2.9440 c3        1 MOL      0.125248
     31 C11         4.5830    1.5200   -3.8540 c         1 MOL      0.433903
     32 O6          3.7650    1.3910   -4.8640 o         1 MOL     -0.532193
     33 C12         4.9430   -1.0690   -3.7310 c3        1 MOL     -0.161239
     34 C13         5.1860   -2.3110   -2.8390 c         1 MOL      0.805244
     35 O7          6.0340   -3.1410   -3.2000 o         1 MOL     -0.732219
     36 O8          4.6010   -2.4330   -1.7200 o         1 MOL     -0.732219
     37 H13         7.0310    0.0550   -2.5440 hn        1 MOL      0.339872
     38 H14         4.1730    0.2120   -2.2010 h1        1 MOL      0.051600
     39 H15         5.6740   -1.0590   -4.5410 hc        1 MOL      0.025380
     40 H16         3.9630   -1.1080   -4.2030 hc        1 MOL      0.025380
     41 N4          5.1350    2.7080   -3.6480 n         1 MOL     -0.290276
     42 C14         4.8250    3.8850   -4.4820 c3        1 MOL     -0.282734
     43 C15         3.3040    4.3040   -4.4210 c         1 MOL      0.567214
     44 O9          2.8370    5.0280   -5.3620 o         1 MOL     -0.608432
     45 H17         5.7660    2.8430   -2.8600 hn        1 MOL      0.293292
     46 H18         5.1510    3.6860   -5.5020 h1        1 MOL      0.134170
     47 H19         5.3380    4.7560   -4.0980 h1        1 MOL      0.134170
     48 N5          2.5590    3.9460   -3.4400 n         1 MOL     -0.376030
     49 C16         1.1680    4.1140   -3.2960 c3        1 MOL      0.281870
     50 C17         0.9660    5.0110   -2.0060 c         1 MOL      0.331671
     51 O10         1.8150    5.1690   -1.1020 o         1 MOL     -0.471730
     52 C18         0.4050    2.8330   -3.3990 c3        1 MOL      0.162082
     53 C19         0.8590    1.7060   -2.5350 c         1 MOL      0.476933
     54 N6         -0.1270    0.8960   -2.0570 n         1 MOL     -0.679056
     55 O11         2.0010    1.4390   -2.2280 o         1 MOL     -0.425419
     56 H20         3.0490    3.5880   -2.6290 hn        1 MOL      0.217815
     57 H21         0.7700    4.6740   -4.1480 h1        1 MOL     -0.016795
     58 H22         0.4410    2.4240   -4.4070 hc        1 MOL     -0.038721
     59 H23        -0.6460    3.0480   -3.2270 hc        1 MOL     -0.038721
     60 H24        -1.0580    1.2850   -2.1720 hn        1 MOL      0.308057
     61 H25         0.1180    0.0900   -1.5030 hn        1 MOL      0.308057
     62 N7         -0.2520    5.4540   -1.8840 n         1 MOL     -0.270949
     63 C20        -0.7210    6.1350   -0.6360 c3        1 MOL     -0.347428
     64 C21        -2.2130    6.0310   -0.3310 c         1 MOL      0.612783
     65 O12        -2.8370    5.1170   -0.8460 o         1 MOL     -0.500681
     66 H26        -0.9510    5.3390   -2.6040 hn        1 MOL      0.248117
     67 H27        -0.5880    7.1990   -0.7920 h1        1 MOL      0.156149
     68 H28        -0.1030    5.6960    0.1480 h1        1 MOL      0.156149
     69 N8         -2.7350    6.8610    0.5820 n         1 MOL     -0.412805
     70 C22        -4.0550    6.6790    1.1630 c3        1 MOL     -0.303811
     71 C23        -4.1430    5.2980    1.8920 c         1 MOL      0.388093
     72 O13        -5.2070    4.6980    1.8990 o         1 MOL     -0.519461
     73 C24        -4.4830    7.8780    2.0860 c3        1 MOL      0.452799
     74 C25        -3.5610    7.9800    3.2820 c3        1 MOL     -0.377851
     75 O14        -4.3860    9.0970    1.3450 oh        1 MOL     -0.626809
     76 H29        -2.1650    7.6380    0.9000 hn        1 MOL      0.242294
     77 H30        -4.7260    6.7590    0.3210 h1        1 MOL      0.183645
     78 H31        -5.5250    7.7870    2.4030 h1        1 MOL      0.060219
     79 H32        -3.4530    9.3180    1.3120 ho        1 MOL      0.387391
     80 H33        -2.5500    8.2050    2.9540 hc        1 MOL      0.087389
     81 H34        -3.9210    8.7390    3.9730 hc        1 MOL      0.087389
     82 H35        -3.5000    6.9900    3.7290 hc        1 MOL      0.087389
     83 N9         -3.0560    4.7110    2.4530 n         1 MOL      0.061179
     84 C26        -2.9960    3.3340    2.8940 c3        1 MOL      0.025157
     85 C27        -2.2660    2.5020    1.8360 c         1 MOL      0.387818
     86 O15        -1.3700    2.9150    1.0690 o         1 MOL     -0.459983
     87 C28        -2.3160    3.2130    4.3010 c3        1 MOL      0.131519
     88 C29        -2.9050    4.1850    5.3560 c3        1 MOL      0.053338
     89 C30        -2.3810    1.7690    4.8230 c3        1 MOL     -0.058857
     90 C31        -4.3760    3.9840    5.6540 c3        1 MOL     -0.023797
     91 H36        -2.1240    5.1090    2.4350 hn        1 MOL      0.095378
     92 H37        -4.0160    2.9700    2.9620 h1        1 MOL      0.033035
     93 H38        -1.2690    3.4890    4.2860 hc        1 MOL     -0.000606
     94 H39        -2.6980    5.2110    5.0300 hc        1 MOL     -0.030384
     95 H40        -2.3320    4.0920    6.2700 hc        1 MOL     -0.030384
     96 H41        -2.2310    1.7140    5.9050 hc        1 MOL      0.004190
     97 H42        -3.3780    1.3720    4.6730 hc        1 MOL      0.004190
     98 H43        -1.6920    1.1540    4.2510 hc        1 MOL      0.004190
     99 H44        -5.0100    4.2410    4.7990 hc        1 MOL     -0.006990
    100 H45        -4.5860    2.9600    5.9510 hc        1 MOL     -0.006990
    101 H46        -4.7130    4.6960    6.4020 hc        1 MOL     -0.006990
    102 N10        -2.6660    1.2240    1.7230 n         1 MOL     -0.501124
    103 C32        -1.9380    0.2370    0.9220 c3        1 MOL      0.227735
    104 C33        -3.0110   -0.6810    0.1640 c         1 MOL      0.510374
    105 O16        -2.8290   -1.8690    0.1740 o         1 MOL     -0.298827
    106 C34        -0.8660   -0.5250    1.7120 c3        1 MOL     -0.319418
    107 C35         0.0580   -1.3820    0.8540 c         1 MOL      0.699616
    108 O17         0.8910   -2.0800    1.4910 o         1 MOL     -0.669180
    109 O18         0.0770   -1.3190   -0.3810 o         1 MOL     -0.669180
    110 H47        -3.4160    0.8440    2.2850 hn        1 MOL      0.302963
    111 H48        -1.3820    0.7250    0.1210 h1        1 MOL      0.047689
    112 H49        -1.3100   -1.0270    2.5720 hc        1 MOL      0.106520
    113 H50        -0.2640    0.2990    2.0940 hc        1 MOL      0.106520
    114 N11        -4.0510   -0.0890   -0.4650 n         1 MOL     -0.771958
    115 C36        -4.9340   -0.8970   -1.4240 c3        1 MOL      0.546930
    116 C37        -5.6950   -2.0050   -0.6230 c         1 MOL      0.166476
    117 O19        -6.2370   -1.6490    0.4140 o         1 MOL     -0.511910
    118 C38        -5.7890   -0.0090   -2.2740 c3        1 MOL     -0.289488
    119 C39        -6.4200   -0.8160   -3.4330 ca        1 MOL      0.105275
    120 C40        -5.7040   -1.0130   -4.6240 ca        1 MOL     -0.210609
    121 C41        -7.6270   -1.5860   -3.2680 ca        1 MOL     -0.210609
    122 C42        -6.1270   -1.9180   -5.6120 ca        1 MOL     -0.088316
    123 C43        -8.0250   -2.5860   -4.2780 ca        1 MOL     -0.088316
    124 C44        -7.2570   -2.7770   -5.4710 ca        1 MOL     -0.134548
    125 H51        -4.3230    0.8570   -0.2420 hn        1 MOL      0.355452
    126 H52        -4.1980   -1.3680   -2.0840 h1        1 MOL     -0.029575
    127 H53        -5.1640    0.7970   -2.6630 hc        1 MOL      0.098660
    128 H54        -6.5230    0.4400   -1.6100 hc        1 MOL      0.098660
    129 H55        -4.7720   -0.4950   -4.8300 ha        1 MOL      0.136511
    130 H56        -8.1410   -1.3360   -2.3480 ha        1 MOL      0.136511
    131 H57        -5.4650   -2.0790   -6.4520 ha        1 MOL      0.107465
    132 H58        -8.9540   -3.1250   -4.2120 ha        1 MOL      0.107465
    133 H59        -7.5810   -3.4790   -6.2220 ha        1 MOL      0.123353
    134 N12        -5.6050   -3.2670   -0.9920 n         1 MOL      0.048919
    135 C45        -6.2090   -4.3560   -0.1180 c3        1 MOL      0.062617
    136 C46        -5.2540   -4.8230    1.0060 c         1 MOL      0.256351
    137 O20        -5.6780   -5.6300    1.8670 o         1 MOL     -0.531990
    138 C47        -6.5140   -5.4070   -1.1500 c3        1 MOL     -0.083654
    139 C48        -5.3090   -5.3430   -2.1210 c3        1 MOL      0.104622
    140 C49        -4.9770   -3.8680   -2.2020 c3        1 MOL     -0.202255
    141 H60        -7.1420   -4.0180    0.3370 h1        1 MOL      0.071080
    142 H61        -6.5260   -6.3750   -0.6650 hc        1 MOL      0.034666
    143 H62        -7.4450   -5.1030   -1.6330 hc        1 MOL      0.034666
    144 H63        -4.4180   -5.8790   -1.8080 hc        1 MOL     -0.008468
    145 H64        -5.7040   -5.6600   -3.0860 hc        1 MOL     -0.008468
    146 H65        -3.9140   -3.6860   -2.1090 h1        1 MOL      0.102018
    147 H66        -5.4030   -3.3330   -3.0560 h1        1 MOL      0.102018
    148 N13        -3.9700   -4.5380    0.9910 n         1 MOL      0.107141
    149 C50        -2.9550   -5.2480    1.8270 c3        1 MOL     -0.108500
    150 C51        -3.0340   -4.8590    3.2600 c         1 MOL      0.490587
    151 O21        -2.9390   -5.7280    4.1750 o         1 MOL     -0.557572
    152 C52        -1.5400   -5.0770    1.3380 c3        1 MOL      0.163745
    153 C53        -1.2710   -5.3190   -0.1810 c3        1 MOL     -0.101752
    154 C54         0.1650   -4.9450   -0.5370 c         1 MOL      0.732738
    155 O22         1.1550   -5.1410    0.2200 o         1 MOL     -0.761159
    156 O23         0.3520   -4.2470   -1.5300 o         1 MOL     -0.761159
    157 H67        -3.6990   -3.8470    0.3080 hn        1 MOL     -0.128358
    158 H68        -3.1530   -6.3150    1.7270 h1        1 MOL      0.100254
    159 H69        -0.9470   -5.8160    1.8670 hc        1 MOL     -0.035748
    160 H70        -1.1460   -4.0750    1.5520 hc        1 MOL     -0.035748
    161 H71        -1.9660   -4.8020   -0.8410 hc        1 MOL      0.013773
    162 H72        -1.3820   -6.3670   -0.4420 hc        1 MOL      0.013773
    163 N14        -3.5460   -3.6650    3.5650 n         1 MOL     -0.159040
    164 C55        -3.7880   -3.2620    4.9360 c3        1 MOL     -0.412802
    165 H73        -4.5580   -2.4890    4.9560 h1        1 MOL      0.144983
    166 H74        -4.1230   -4.1220    5.5140 h1        1 MOL      0.144983
    167 H75        -2.8680   -2.8680    5.3670 h1        1 MOL      0.144983
    168 H76        -3.5170   -2.9180    2.8800 hn        1 MOL      0.199741
    169 Ca1         2.3960   -2.9710   -0.4940 Ca        1 MOL      1.687555
    170 O24         1.5680   -1.8150   -2.8860 oh        1 MOL     -0.798512
    171 H77         0.6490   -1.5360   -2.9610 ho        1 MOL      0.384701
    172 H78         1.9950   -1.4540   -3.6520 ho        1 MOL      0.384701
    173 O25         3.0160   -0.4420   -0.3700 oh        1 MOL     -0.798512
    174 H79         3.8800   -0.0450   -0.3140 ho        1 MOL      0.384701
    175 H80         2.5610    0.0710   -1.0440 ho        1 MOL      0.384701
    176 O26         4.2550   -2.9880    1.3420 oh        1 MOL     -0.798512
    177 H81         5.0110   -2.4090    1.2960 ho        1 MOL      0.384701
    178 H82         4.5330   -3.7190    1.8990 ho        1 MOL      0.384701
    179 O27         3.3380   -5.1420   -2.2830 oh        1 MOL     -0.798512
    180 H83         2.8880   -5.9270   -1.9490 ho        1 MOL      0.384701
    181 H84         4.1630   -5.4680   -2.6350 ho        1 MOL      0.384701
@<TRIPOS>BOND
     1    1    2 1   
     2    1    4 1   
     3    1    5 1   
     4    1    6 1   
     5    2    3 2   
     6    2    7 1   
     7    7    8 1   
     8    7   15 1   
     9    8    9 1   
    10    8   11 1   
    11    8   16 1   
    12    9   10 2   
    13    9   19 1   
    14   11   12 1   
    15   11   17 1   
    16   11   18 1   
    17   12   13 1   
    18   12   14 1   
    19   19   20 1   
    20   19   24 1   
    21   20   21 1   
    22   20   23 1   
    23   20   25 1   
    24   21   22 2   
    25   21   29 1   
    26   23   26 1   
    27   23   27 1   
    28   23   28 1   
    29   29   30 1   
    30   29   37 1   
    31   30   31 1   
    32   30   33 1   
    33   30   38 1   
    34   31   32 2   
    35   31   41 1   
    36   33   34 1   
    37   33   39 1   
    38   33   40 1   
    39   34   35 1   
    40   34   36 1   
    41   41   42 1   
    42   41   45 1   
    43   42   43 1   
    44   42   46 1   
    45   42   47 1   
    46   43   44 2   
    47   43   48 1   
    48   48   49 1   
    49   48   56 1   
    50   49   50 1   
    51   49   52 1   
    52   49   57 1   
    53   50   51 2   
    54   50   62 1   
    55   52   53 1   
    56   52   58 1   
    57   52   59 1   
    58   53   54 1   
    59   53   55 2   
    60   54   60 1   
    61   54   61 1   
    62   62   63 1   
    63   62   66 1   
    64   63   64 1   
    65   63   67 1   
    66   63   68 1   
    67   64   65 2   
    68   64   69 1   
    69   69   70 1   
    70   69   76 1   
    71   70   71 1   
    72   70   73 1   
    73   70   77 1   
    74   71   72 2   
    75   71   83 1   
    76   73   74 1   
    77   73   75 1   
    78   73   78 1   
    79   74   80 1   
    80   74   81 1   
    81   74   82 1   
    82   75   79 1   
    83   83   84 1   
    84   83   91 1   
    85   84   85 1   
    86   84   87 1   
    87   84   92 1   
    88   85   86 2   
    89   85  102 1   
    90   87   88 1   
    91   87   89 1   
    92   87   93 1   
    93   88   90 1   
    94   88   94 1   
    95   88   95 1   
    96   89   96 1   
    97   89   97 1   
    98   89   98 1   
    99   90   99 1   
   100   90  100 1   
   101   90  101 1   
   102  102  103 1   
   103  102  110 1   
   104  103  104 1   
   105  103  106 1   
   106  103  111 1   
   107  104  105 2   
   108  104  114 1   
   109  106  107 1   
   110  106  112 1   
   111  106  113 1   
   112  107  108 1   
   113  107  109 1   
   114  114  115 1   
   115  114  125 1   
   116  115  116 1   
   117  115  118 1   
   118  115  126 1   
   119  116  117 2   
   120  116  134 1   
   121  118  119 1   
   122  118  127 1   
   123  118  128 1   
   124  119  120 ar  
   125  119  121 ar  
   126  120  122 ar  
   127  120  129 1   
   128  121  123 ar  
   129  121  130 1   
   130  122  124 ar  
   131  122  131 1   
   132  123  124 ar  
   133  123  132 1   
   134  124  133 1   
   135  134  135 1   
   136  134  140 1   
   137  135  136 1   
   138  135  138 1   
   139  135  141 1   
   140  136  137 2   
   141  136  148 1   
   142  138  139 1   
   143  138  142 1   
   144  138  143 1   
   145  139  140 1   
   146  139  144 1   
   147  139  145 1   
   148  140  146 1   
   149  140  147 1   
   150  148  149 1   
   151  148  157 1   
   152  149  150 1   
   153  149  152 1   
   154  149  158 1   
   155  150  151 2   
   156  150  163 1   
   157  152  153 1   
   158  152  159 1   
   159  152  160 1   
   160  153  154 1   
   161  153  161 1   
   162  153  162 1   
   163  154  155 1   
   164  154  156 1   
   165  163  164 1   
   166  163  168 1   
   167  164  165 1   
   168  164  166 1   
   169  164  167 1   
   170  170  171 1   
   171  170  172 1   
   172  173  174 1   
   173  173  175 1   
   174  176  177 1   
   175  176  178 1   
   176  179  180 1   
   177  179  181 1   
@<TRIPOS>SUBSTRUCTURE
     1 MOL         1 TEMP              0 ****  ****    0 ROOT
