@<TRIPOS>MOLECULE
MOL
  178   175     1     0     0
SMALL
resp


@<TRIPOS>ATOM
      1 C1         -5.6400   -2.6050   -3.6050 c3        1 MOL     -0.348125
      2 C2         -6.6970   -1.5100   -3.3010 c         1 MOL      0.641525
      3 O1         -6.3630   -0.3070   -3.3740 o         1 MOL     -0.620682
      4 H1         -5.3590   -2.5550   -4.6570 hc        1 MOL      0.089282
      5 H2         -4.7580   -2.4400   -2.9860 hc        1 MOL      0.089282
      6 H3         -6.0610   -3.5870   -3.3870 hc        1 MOL      0.089282
      7 N1         -7.9170   -1.9330   -2.9710 n         1 MOL     -0.453772
      8 C3         -9.1000   -1.0290   -2.7860 c3        1 MOL      0.282861
      9 C4         -9.1880   -0.4840   -1.3680 c         1 MOL      0.523849
     10 O2        -10.2810   -0.4570   -0.8200 o         1 MOL     -0.527345
     11 C5        -10.3020   -1.6690   -3.4010 c3        1 MOL     -0.362753
     12 C6        -10.6940   -2.9860   -2.7450 c         1 MOL      0.748382
     13 O3         -9.7840   -3.7540   -2.3090 o         1 MOL     -0.717630
     14 O4        -11.8710   -3.3420   -2.6290 o         1 MOL     -0.717630
     15 H4         -8.0680   -2.9220   -2.8530 hn        1 MOL      0.243656
     16 H5         -8.8610   -0.1500   -3.3960 h1        1 MOL     -0.009923
     17 H6        -10.0290   -1.8110   -4.4410 hc        1 MOL      0.056524
     18 H7        -11.0500   -0.8850   -3.2830 hc        1 MOL      0.056524
     19 N2         -8.0710   -0.2210   -0.7320 n         1 MOL     -0.481053
     20 C7         -7.8330   -0.0220    0.7390 c3        1 MOL      0.163071
     21 C8         -6.3560   -0.2620    1.0970 c         1 MOL      0.558837
     22 O5         -5.4680   -0.2450    0.1940 o         1 MOL     -0.469894
     23 C9         -8.2040    1.4180    1.0720 c3        1 MOL     -0.178596
     24 H8         -7.2190   -0.4170   -1.2300 hn        1 MOL      0.211658
     25 H9         -8.4500   -0.6450    1.3780 h1        1 MOL      0.056973
     26 H10        -7.4550    2.0900    0.6400 hc        1 MOL      0.043463
     27 H11        -9.2160    1.6910    0.7720 hc        1 MOL      0.043463
     28 H12        -8.0160    1.5960    2.1240 hc        1 MOL      0.043463
     29 N3         -5.9920   -0.5390    2.3690 n         1 MOL     -0.635189
     30 C10        -4.6380   -0.7720    2.8150 c3        1 MOL      0.424884
     31 C11        -4.2730   -0.0140    4.1290 c         1 MOL      0.347394
     32 O6         -5.1000    0.4430    4.9550 o         1 MOL     -0.516602
     33 C12        -4.4610   -2.3330    2.9370 c3        1 MOL     -0.290648
     34 C13        -3.0080   -2.8200    2.8810 c         1 MOL      0.666828
     35 O7         -2.1360   -2.1690    2.2680 o         1 MOL     -0.721308
     36 O8         -2.5970   -3.7290    3.5920 o         1 MOL     -0.721308
     37 H13        -6.7250   -0.6620    3.0490 hn        1 MOL      0.291727
     38 H14        -3.9790   -0.3800    2.0360 h1        1 MOL     -0.031209
     39 H15        -4.8980   -2.8320    2.0750 hc        1 MOL      0.075709
     40 H16        -5.0040   -2.7240    3.8030 hc        1 MOL      0.075709
     41 N4         -2.9540    0.0360    4.3990 n         1 MOL     -0.202625
     42 C14        -2.3250    0.5240    5.6240 c3        1 MOL     -0.184401
     43 C15        -1.7210    1.9860    5.5330 c         1 MOL      0.588912
     44 O9         -1.4540    2.5900    6.5750 o         1 MOL     -0.556546
     45 H17        -2.2640   -0.3490    3.7750 hn        1 MOL      0.287429
     46 H18        -1.6150   -0.2650    5.8910 h1        1 MOL      0.089645
     47 H19        -3.0430    0.4660    6.4400 h1        1 MOL      0.089645
     48 N5         -1.4000    2.4340    4.3070 n         1 MOL     -0.488184
     49 C16        -0.6550    3.6860    4.0230 c3        1 MOL      0.326774
     50 C17        -1.0140    4.4320    2.7390 c         1 MOL      0.420739
     51 O10        -1.5800    3.8100    1.8370 o         1 MOL     -0.473045
     52 C18         0.8590    3.3400    4.1380 c3        1 MOL     -0.034959
     53 C19         1.7050    4.5110    4.2270 c         1 MOL      0.621055
     54 N6          2.9520    4.1670    4.3140 n         1 MOL     -0.751490
     55 O11         1.3880    5.6530    4.4410 o         1 MOL     -0.553674
     56 H20        -1.4810    1.8250    3.5040 hn        1 MOL      0.216509
     57 H21        -0.8460    4.3030    4.9070 h1        1 MOL     -0.018028
     58 H22         1.2180    2.8990    3.1980 hc        1 MOL      0.020891
     59 H23         0.9730    2.6280    4.9540 hc        1 MOL      0.020891
     60 H24         3.2580    3.2760    3.9600 hn        1 MOL      0.343185
     61 H25         3.6590    4.8640    4.5190 hn        1 MOL      0.343185
     62 N7         -0.8250    5.7650    2.5860 n         1 MOL     -0.507402
     63 C20        -1.1330    6.3990    1.2830 c3        1 MOL      0.082147
     64 C21        -0.0290    6.3840    0.2280 c         1 MOL      0.476747
     65 O12         1.1590    6.2200    0.5920 o         1 MOL     -0.453721
     66 H26        -0.2910    6.2810    3.2740 hn        1 MOL      0.307005
     67 H27        -1.3950    7.4360    1.4970 h1        1 MOL      0.039678
     68 H28        -1.9890    5.9580    0.7820 h1        1 MOL      0.039678
     69 N8         -0.4430    6.7360   -1.0300 n         1 MOL     -0.243767
     70 C22         0.4530    6.8810   -2.2170 c3        1 MOL     -0.608354
     71 C23         1.0980    5.5300   -2.4880 c         1 MOL      0.710933
     72 O13         2.3290    5.5150   -2.4890 o         1 MOL     -0.565930
     73 C24        -0.2120    7.6250   -3.4010 c3        1 MOL      0.604497
     74 C25        -1.1260    6.7600   -4.2610 c3        1 MOL     -0.259363
     75 O14        -0.9050    8.7580   -2.9540 oh        1 MOL     -0.666952
     76 H29        -1.3880    7.0600   -1.1500 hn        1 MOL      0.197514
     77 H30         1.2240    7.5360   -1.8200 h1        1 MOL      0.204351
     78 H31         0.4990    7.8190   -4.2020 h1        1 MOL      0.011186
     79 H32        -1.6220    8.5100   -2.3600 ho        1 MOL      0.408032
     80 H33        -0.6040    6.1900   -5.0240 hc        1 MOL      0.052417
     81 H34        -1.7290    6.1630   -3.5800 hc        1 MOL      0.052417
     82 H35        -1.7900    7.3880   -4.8560 hc        1 MOL      0.052417
     83 N9          0.3790    4.4390   -2.6050 n         1 MOL     -0.470307
     84 C26         1.0110    3.1180   -2.9900 c3        1 MOL      0.024804
     85 C27         1.1260    2.1960   -1.7520 c         1 MOL      0.574401
     86 O15         0.8280    2.6720   -0.6350 o         1 MOL     -0.480016
     87 C28         0.2470    2.3840   -4.1060 c3        1 MOL      0.053375
     88 C29        -1.2350    2.0430   -3.6760 c3        1 MOL     -0.035979
     89 C30         0.3930    2.9730   -5.4920 c3        1 MOL     -0.275335
     90 C31        -1.7950    0.9230   -4.5310 c3        1 MOL     -0.030797
     91 H36        -0.5600    4.4670   -2.2530 hn        1 MOL      0.254973
     92 H37         2.0210    3.2690   -3.3800 h1        1 MOL      0.079393
     93 H38         0.7120    1.4110   -4.1940 hc        1 MOL      0.020834
     94 H39        -1.9250    2.8900   -3.6840 hc        1 MOL      0.064259
     95 H40        -1.2790    1.7390   -2.6380 hc        1 MOL      0.064259
     96 H41         0.1540    2.2160   -6.2410 hc        1 MOL      0.069889
     97 H42        -0.3350    3.7600   -5.7110 hc        1 MOL      0.069889
     98 H43         1.4010    3.3260   -5.6880 hc        1 MOL      0.069889
     99 H44        -1.0410    0.2540   -4.9600 hc        1 MOL      0.008930
    100 H45        -2.5790    0.3570   -4.0340 hc        1 MOL      0.008930
    101 H46        -2.1150    1.5030   -5.3950 hc        1 MOL      0.008930
    102 N10         1.5440    0.9410   -1.9340 n         1 MOL     -0.750150
    103 C32         1.7120   -0.0440   -0.8280 c3        1 MOL      0.353565
    104 C33         3.2070   -0.3210   -0.6100 c         1 MOL      0.402452
    105 O16         3.5970   -1.4230   -0.3050 o         1 MOL     -0.428273
    106 C34         0.9390   -1.3250   -1.2720 c3        1 MOL     -0.010867
    107 C35         0.6450   -2.1790   -0.0680 c         1 MOL      0.539479
    108 O17         0.8090   -1.8240    1.1480 o         1 MOL     -0.682325
    109 O18         0.0550   -3.2810   -0.2930 o         1 MOL     -0.682325
    110 H47         1.9760    0.7630   -2.8300 hn        1 MOL      0.334244
    111 H48         1.3000    0.2490    0.1440 h1        1 MOL      0.035482
    112 H49         1.5480   -1.8920   -1.9680 hc        1 MOL      0.030213
    113 H50         0.0140   -1.0280   -1.7710 hc        1 MOL      0.030213
    114 N11         4.0590    0.6620   -0.7220 n         1 MOL     -0.497030
    115 C36         5.5040    0.4510   -0.5410 c3        1 MOL      0.328346
    116 C37         6.0280   -0.7680   -1.4410 c         1 MOL      0.280786
    117 O19         5.8140   -0.7660   -2.6650 o         1 MOL     -0.502035
    118 C38         6.2540    1.7540   -0.7390 c3        1 MOL     -0.295251
    119 C39         7.5760    1.7030   -0.0760 ca        1 MOL      0.195577
    120 C40         7.7950    2.1030    1.2350 ca        1 MOL     -0.238456
    121 C41         8.6410    1.1500   -0.8040 ca        1 MOL     -0.238456
    122 C42         9.0550    2.1180    1.8170 ca        1 MOL     -0.060656
    123 C43         9.8830    0.9700   -0.1720 ca        1 MOL     -0.060656
    124 C44        10.0940    1.5120    1.0830 ca        1 MOL     -0.171932
    125 H51         3.7430    1.5700   -1.0090 hn        1 MOL      0.272802
    126 H52         5.6230    0.1660    0.5050 h1        1 MOL     -0.004543
    127 H53         5.7630    2.5750   -0.1980 hc        1 MOL      0.111837
    128 H54         6.3280    1.9900   -1.8040 hc        1 MOL      0.111837
    129 H55         6.9610    2.4920    1.7940 ha        1 MOL      0.132816
    130 H56         8.4540    0.8090   -1.8130 ha        1 MOL      0.132816
    131 H57         9.1740    2.4610    2.8310 ha        1 MOL      0.104399
    132 H58        10.7180    0.4490   -0.6130 ha        1 MOL      0.104399
    133 H59        11.0370    1.2130    1.5260 ha        1 MOL      0.105009
    134 N12         6.8040   -1.6980   -0.8140 n         1 MOL     -0.050047
    135 C45         7.3780   -2.8200   -1.4870 c3        1 MOL      0.088939
    136 C46         6.3540   -3.8130   -2.1080 c         1 MOL      0.302662
    137 O20         6.7270   -4.7700   -2.7050 o         1 MOL     -0.525294
    138 C47         8.2220   -3.6200   -0.4950 c3        1 MOL     -0.036057
    139 C48         7.5710   -3.2940    0.8080 c3        1 MOL     -0.016340
    140 C49         7.1200   -1.8260    0.6150 c3        1 MOL     -0.214934
    141 H60         7.9940   -2.5420   -2.3410 h1        1 MOL      0.027684
    142 H61         8.3580   -4.6660   -0.7690 hc        1 MOL      0.031054
    143 H62         9.1920   -3.1260   -0.4770 hc        1 MOL      0.031054
    144 H63         6.6430   -3.8300    0.9830 hc        1 MOL      0.022263
    145 H64         8.3050   -3.2900    1.6070 hc        1 MOL      0.022263
    146 H65         6.2680   -1.6260    1.2660 h1        1 MOL      0.111654
    147 H66         7.9900   -1.2480    0.9040 h1        1 MOL      0.111654
    148 N13         5.1220   -3.6340   -1.7400 n         1 MOL     -0.087685
    149 C50         4.1030   -4.6900   -1.9090 c3        1 MOL     -0.096610
    150 C51         3.2800   -4.5920   -3.1590 c         1 MOL      0.326319
    151 O21         2.5750   -5.4740   -3.5780 o         1 MOL     -0.492666
    152 C52         3.0660   -4.7890   -0.7190 c3        1 MOL      0.169037
    153 C53         3.6910   -5.0080    0.6430 c3        1 MOL     -0.079689
    154 C54         2.7000   -5.0190    1.8100 c         1 MOL      0.555695
    155 O22         1.7400   -5.8070    1.8300 o         1 MOL     -0.711825
    156 O23         2.5940   -3.9720    2.4800 o         1 MOL     -0.711825
    157 H67         4.8930   -2.7800   -1.2550 hn        1 MOL      0.208595
    158 H68         4.5680   -5.6780   -1.9450 h1        1 MOL      0.113223
    159 H69         2.4170   -5.6480   -0.9530 hc        1 MOL     -0.003755
    160 H70         2.5750   -3.8180   -0.7170 hc        1 MOL     -0.003755
    161 H71         4.3270   -4.1450    0.8440 hc        1 MOL     -0.000667
    162 H72         4.3070   -5.9030    0.6030 hc        1 MOL     -0.000667
    163 N14         3.2560   -3.4270   -3.8770 n         1 MOL     -0.115145
    164 C55         2.5950   -3.0870   -5.1920 c3        1 MOL     -0.241686
    165 H73         2.3870   -4.0050   -5.7410 h1        1 MOL      0.099147
    166 H74         1.6610   -2.5580   -5.0030 h1        1 MOL      0.099147
    167 H75         3.2590   -2.4540   -5.7810 h1        1 MOL      0.099147
    168 H76         3.8610   -2.6830   -3.5720 hn        1 MOL      0.146075
    169 Ca1        -0.1350   -3.9700    2.3010 Ca        1 MOL      1.779956
    170 O24        -1.1980   -6.3090    1.0890 oh        1 MOL     -0.856852
    171 H77        -1.9850   -6.4020    0.5490 ho        1 MOL      0.414981
    172 H78        -0.9910   -7.2140    1.3520 ho        1 MOL      0.414981
    173 O25        -0.2380   -5.9520    4.1210 oh        1 MOL     -0.856852
    174 H79        -0.8660   -6.5950    4.4370 ho        1 MOL      0.414981
    175 H80         0.6190   -6.3580    4.2450 ho        1 MOL      0.414981
    176 O26         0.1220   -2.4470    4.4530 oh        1 MOL     -0.856852
    177 H81        -0.4270   -2.4760    5.2360 ho        1 MOL      0.414981
    178 H82         0.9580   -2.0960    4.7640 ho        1 MOL      0.414981
@<TRIPOS>BOND
     1    1    2 1   
     2    1    4 1   
     3    1    5 1   
     4    1    6 1   
     5    2    3 2   
     6    2    7 1   
     7    7    8 1   
     8    7   15 1   
     9    8    9 1   
    10    8   11 1   
    11    8   16 1   
    12    9   10 2   
    13    9   19 1   
    14   11   12 1   
    15   11   17 1   
    16   11   18 1   
    17   12   13 1   
    18   12   14 1   
    19   19   20 1   
    20   19   24 1   
    21   20   21 1   
    22   20   23 1   
    23   20   25 1   
    24   21   22 2   
    25   21   29 1   
    26   23   26 1   
    27   23   27 1   
    28   23   28 1   
    29   29   30 1   
    30   29   37 1   
    31   30   31 1   
    32   30   33 1   
    33   30   38 1   
    34   31   32 2   
    35   31   41 1   
    36   33   34 1   
    37   33   39 1   
    38   33   40 1   
    39   34   35 1   
    40   34   36 1   
    41   41   42 1   
    42   41   45 1   
    43   42   43 1   
    44   42   46 1   
    45   42   47 1   
    46   43   44 2   
    47   43   48 1   
    48   48   49 1   
    49   48   56 1   
    50   49   50 1   
    51   49   52 1   
    52   49   57 1   
    53   50   51 2   
    54   50   62 1   
    55   52   53 1   
    56   52   58 1   
    57   52   59 1   
    58   53   54 1   
    59   53   55 2   
    60   54   60 1   
    61   54   61 1   
    62   62   63 1   
    63   62   66 1   
    64   63   64 1   
    65   63   67 1   
    66   63   68 1   
    67   64   65 2   
    68   64   69 1   
    69   69   70 1   
    70   69   76 1   
    71   70   71 1   
    72   70   73 1   
    73   70   77 1   
    74   71   72 2   
    75   71   83 1   
    76   73   74 1   
    77   73   75 1   
    78   73   78 1   
    79   74   80 1   
    80   74   81 1   
    81   74   82 1   
    82   75   79 1   
    83   83   84 1   
    84   83   91 1   
    85   84   85 1   
    86   84   87 1   
    87   84   92 1   
    88   85   86 2   
    89   85  102 1   
    90   87   88 1   
    91   87   89 1   
    92   87   93 1   
    93   88   90 1   
    94   88   94 1   
    95   88   95 1   
    96   89   96 1   
    97   89   97 1   
    98   89   98 1   
    99   90   99 1   
   100   90  100 1   
   101   90  101 1   
   102  102  103 1   
   103  102  110 1   
   104  103  104 1   
   105  103  106 1   
   106  103  111 1   
   107  104  105 2   
   108  104  114 1   
   109  106  107 1   
   110  106  112 1   
   111  106  113 1   
   112  107  108 1   
   113  107  109 1   
   114  114  115 1   
   115  114  125 1   
   116  115  116 1   
   117  115  118 1   
   118  115  126 1   
   119  116  117 2   
   120  116  134 1   
   121  118  119 1   
   122  118  127 1   
   123  118  128 1   
   124  119  120 ar  
   125  119  121 ar  
   126  120  122 ar  
   127  120  129 1   
   128  121  123 ar  
   129  121  130 1   
   130  122  124 ar  
   131  122  131 1   
   132  123  124 ar  
   133  123  132 1   
   134  124  133 1   
   135  134  135 1   
   136  134  140 1   
   137  135  136 1   
   138  135  138 1   
   139  135  141 1   
   140  136  137 2   
   141  136  148 1   
   142  138  139 1   
   143  138  142 1   
   144  138  143 1   
   145  139  140 1   
   146  139  144 1   
   147  139  145 1   
   148  140  146 1   
   149  140  147 1   
   150  148  149 1   
   151  148  157 1   
   152  149  150 1   
   153  149  152 1   
   154  149  158 1   
   155  150  151 2   
   156  150  163 1   
   157  152  153 1   
   158  152  159 1   
   159  152  160 1   
   160  153  154 1   
   161  153  161 1   
   162  153  162 1   
   163  154  155 1   
   164  154  156 1   
   165  163  164 1   
   166  163  168 1   
   167  164  165 1   
   168  164  166 1   
   169  164  167 1   
   170  170  171 1   
   171  170  172 1   
   172  173  174 1   
   173  173  175 1   
   174  176  177 1   
   175  176  178 1   
@<TRIPOS>SUBSTRUCTURE
     1 MOL         1 TEMP              0 ****  ****    0 ROOT
