@<TRIPOS>MOLECULE
MOL
  178   175     1     0     0
SMALL
resp


@<TRIPOS>ATOM
      1 C1          1.4820   -1.5670    5.1880 c3        1 MOL     -0.288770
      2 C2          2.6580   -0.9370    4.3560 c         1 MOL      0.563845
      3 O1          2.6410    0.2510    3.9660 o         1 MOL     -0.541374
      4 H1          1.8320   -2.4750    5.6800 hc        1 MOL      0.072383
      5 H2          1.1450   -0.8540    5.9400 hc        1 MOL      0.072383
      6 H3          0.6550   -1.8110    4.5210 hc        1 MOL      0.072383
      7 N1          3.7570   -1.6390    4.3190 n         1 MOL     -0.389122
      8 C3          5.0990   -1.2340    3.9940 c3        1 MOL      0.106159
      9 C4          5.4650   -1.8970    2.5860 c         1 MOL      0.609932
     10 O2          6.2000   -1.2340    1.8410 o         1 MOL     -0.537297
     11 C5          6.1380   -1.5690    5.1210 c3        1 MOL     -0.077561
     12 C6          7.5790   -1.2370    4.7430 c         1 MOL      0.678796
     13 O3          8.3480   -2.1780    4.8800 o         1 MOL     -0.713645
     14 O4          7.9210   -0.0980    4.2910 o         1 MOL     -0.713645
     15 H4          3.6820   -2.4710    4.8880 hn        1 MOL      0.242914
     16 H5          5.1460   -0.1580    3.8620 h1        1 MOL      0.053151
     17 H6          6.1230   -2.6520    5.2490 hc        1 MOL     -0.036855
     18 H7          5.7750   -1.1330    6.0470 hc        1 MOL     -0.036855
     19 N2          4.8830   -3.0320    2.2360 n         1 MOL     -0.478385
     20 C7          4.9810   -3.7230    0.8940 c3        1 MOL      0.250354
     21 C8          4.7520   -2.8260   -0.3410 c         1 MOL      0.447192
     22 O5          3.6010   -2.5370   -0.7390 o         1 MOL     -0.618761
     23 C9          6.2830   -4.5840    0.8270 c3        1 MOL     -0.538757
     24 H8          4.1730   -3.3390    2.8890 hn        1 MOL      0.234918
     25 H9          4.1330   -4.4040    0.7910 h1        1 MOL      0.099224
     26 H10         5.9890   -5.4920    1.3540 hc        1 MOL      0.141867
     27 H11         6.4200   -4.9720   -0.1790 hc        1 MOL      0.141867
     28 H12         7.1510   -4.1760    1.3380 hc        1 MOL      0.141867
     29 N3          5.8400   -2.4830   -1.0450 n         1 MOL     -0.302591
     30 C10         5.8400   -1.6890   -2.3190 c3        1 MOL     -0.044356
     31 C11         6.0130   -0.1720   -2.0740 c         1 MOL      0.519917
     32 O6          6.4170    0.5520   -3.0080 o         1 MOL     -0.578402
     33 C12         6.9400   -2.3140   -3.1930 c3        1 MOL     -0.156540
     34 C13         6.7310   -3.7110   -3.7440 c         1 MOL      0.653229
     35 O7          5.5630   -4.1710   -3.7580 o         1 MOL     -0.695452
     36 O8          7.7320   -4.3300   -4.2220 o         1 MOL     -0.695452
     37 H13         6.6950   -2.5960   -0.5170 hn        1 MOL      0.254813
     38 H14         4.9170   -1.8240   -2.8790 h1        1 MOL      0.105021
     39 H15         7.8290   -2.2570   -2.5540 hc        1 MOL      0.044215
     40 H16         7.1870   -1.6430   -4.0140 hc        1 MOL      0.044215
     41 N4          5.9900    0.3770   -0.8640 n         1 MOL     -0.191146
     42 C14         6.0410    1.8270   -0.5650 c3        1 MOL     -0.144086
     43 C15         5.0340    2.8050   -1.2550 c         1 MOL      0.574867
     44 O9          5.4680    4.0000   -1.3940 o         1 MOL     -0.543983
     45 H17         5.8280   -0.2850   -0.1230 hn        1 MOL      0.187620
     46 H18         6.9970    2.1900   -0.9290 h1        1 MOL      0.092224
     47 H19         5.9460    2.0340    0.5040 h1        1 MOL      0.092224
     48 N5          3.8470    2.2600   -1.6750 n         1 MOL     -0.352584
     49 C16         2.9280    2.9430   -2.4860 c3        1 MOL     -0.113630
     50 C17         2.4680    4.2800   -1.8100 c         1 MOL      0.511128
     51 O10         2.2520    4.3530   -0.6000 o         1 MOL     -0.481634
     52 C18         1.7670    2.0120   -2.6280 c3        1 MOL     -0.110725
     53 C19         2.1250    0.6290   -3.1440 c         1 MOL      0.640989
     54 N6          1.8110    0.2100   -4.3990 n         1 MOL     -0.827640
     55 O11         2.5370   -0.2930   -2.4160 o         1 MOL     -0.540211
     56 H20         3.5770    1.3230   -1.4080 hn        1 MOL      0.267154
     57 H21         3.3130    3.1870   -3.4750 h1        1 MOL      0.087661
     58 H22         1.2350    2.5670   -3.4050 hc        1 MOL      0.061650
     59 H23         1.1310    1.9300   -1.7420 hc        1 MOL      0.061650
     60 H24         1.2210    0.7450   -5.0170 hn        1 MOL      0.364815
     61 H25         2.0090   -0.7280   -4.6910 hn        1 MOL      0.364815
     62 N7          2.3150    5.3530   -2.5970 n         1 MOL     -0.254016
     63 C20         2.0270    6.7320   -2.2010 c3        1 MOL     -0.436924
     64 C21         0.5570    6.7930   -1.7650 c         1 MOL      0.641150
     65 O12        -0.3770    6.3830   -2.4660 o         1 MOL     -0.531427
     66 H26         2.7060    5.2970   -3.5240 hn        1 MOL      0.248523
     67 H27         2.0510    7.4110   -3.0550 h1        1 MOL      0.186213
     68 H28         2.6750    6.9640   -1.3570 h1        1 MOL      0.186213
     69 N8          0.2870    7.4620   -0.6210 n         1 MOL     -0.436703
     70 C22        -1.1430    7.8390   -0.2650 c3        1 MOL     -0.319688
     71 C23        -1.9840    6.8040    0.4820 c         1 MOL      0.513649
     72 O13        -3.0770    7.0500    0.9530 o         1 MOL     -0.565842
     73 C24        -1.2610    9.1980    0.5280 c3        1 MOL      0.607572
     74 C25        -0.7730    9.0310    1.9450 c3        1 MOL     -0.312835
     75 O14        -0.4050   10.0680   -0.0150 oh        1 MOL     -0.683923
     76 H29         1.0080    7.8800   -0.0570 hn        1 MOL      0.276541
     77 H30        -1.6960    8.0270   -1.1980 h1        1 MOL      0.170313
     78 H31        -2.2800    9.5540    0.4390 h1        1 MOL     -0.003754
     79 H32         0.4870    9.7290   -0.0730 ho        1 MOL      0.383507
     80 H33         0.0350    8.3010    1.9030 hc        1 MOL      0.061888
     81 H34        -0.5530    9.9740    2.4510 hc        1 MOL      0.061888
     82 H35        -1.5380    8.5530    2.5550 hc        1 MOL      0.061888
     83 N9         -1.5310    5.5230    0.4370 n         1 MOL     -0.201248
     84 C26        -2.0690    4.3560    1.0520 c3        1 MOL     -0.021196
     85 C27        -2.0390    3.1330    0.0660 c         1 MOL      0.398280
     86 O15        -1.3530    3.2330   -0.9890 o         1 MOL     -0.478714
     87 C28        -1.4390    4.1080    2.4460 c3        1 MOL      0.084464
     88 C29         0.0160    3.7060    2.3040 c3        1 MOL      0.014924
     89 C30        -1.6460    5.3870    3.2800 c3        1 MOL     -0.132888
     90 C31         0.6770    3.6240    3.7070 c3        1 MOL     -0.573977
     91 H36        -0.6240    5.3410    0.0300 hn        1 MOL      0.203704
     92 H37        -3.1250    4.5300    1.2420 h1        1 MOL      0.054239
     93 H38        -1.9350    3.2380    2.8770 hc        1 MOL     -0.027545
     94 H39         0.5100    4.4370    1.6640 hc        1 MOL      0.098991
     95 H40         0.1870    2.7260    1.8610 hc        1 MOL      0.098991
     96 H41        -0.9010    6.1480    3.0250 hc        1 MOL      0.035415
     97 H42        -2.6870    5.7040    3.2820 hc        1 MOL      0.035415
     98 H43        -1.5740    5.2380    4.3640 hc        1 MOL      0.035415
     99 H44         1.7030    3.3230    3.5560 hc        1 MOL      0.151412
    100 H45         0.6010    4.5850    4.2150 hc        1 MOL      0.151412
    101 H46         0.1650    2.8080    4.2220 hc        1 MOL      0.151412
    102 N10        -2.6170    2.0260    0.4220 n         1 MOL     -0.550080
    103 C32        -2.3790    0.7880   -0.3520 c3        1 MOL      0.327216
    104 C33        -3.6720   -0.0180   -0.5900 c         1 MOL      0.564323
    105 O16        -3.5360   -1.2200   -0.9160 o         1 MOL     -0.576177
    106 C34        -1.3900   -0.0480    0.5080 c3        1 MOL     -0.008813
    107 C35        -0.3370   -0.8570   -0.2370 c         1 MOL      0.675248
    108 O17         0.6850   -1.4030    0.2790 o         1 MOL     -0.736585
    109 O18        -0.5430   -0.9820   -1.4950 o         1 MOL     -0.736585
    110 H47        -3.2180    1.9740    1.2340 hn        1 MOL      0.299277
    111 H48        -1.9820    0.9700   -1.3500 h1        1 MOL     -0.003181
    112 H49        -2.0080   -0.5700    1.2370 hc        1 MOL     -0.003247
    113 H50        -0.8040    0.6610    1.0870 hc        1 MOL     -0.003247
    114 N11        -4.7900    0.6630   -0.5180 n         1 MOL     -0.587339
    115 C36        -6.0390   -0.1220   -0.8350 c3        1 MOL      0.310544
    116 C37        -6.3540   -1.2630    0.1780 c         1 MOL      0.210129
    117 O19        -6.2540   -1.0660    1.3620 o         1 MOL     -0.464252
    118 C38        -7.2820    0.7920   -0.8880 c3        1 MOL     -0.220310
    119 C39        -8.5490    0.0910   -1.3260 ca        1 MOL      0.037004
    120 C40        -8.9510    0.0640   -2.6560 ca        1 MOL     -0.101554
    121 C41        -9.2480   -0.5810   -0.3510 ca        1 MOL     -0.101554
    122 C42       -10.0350   -0.7190   -3.0310 ca        1 MOL     -0.164261
    123 C43       -10.3700   -1.3740   -0.6880 ca        1 MOL     -0.164261
    124 C44       -10.8580   -1.3090   -1.9870 ca        1 MOL     -0.080556
    125 H51        -4.8440    1.6340   -0.2470 hn        1 MOL      0.317495
    126 H52        -5.9510   -0.5200   -1.8390 h1        1 MOL      0.016163
    127 H53        -7.0840    1.6180   -1.5720 hc        1 MOL      0.085822
    128 H54        -7.3530    1.2690    0.0940 hc        1 MOL      0.085822
    129 H55        -8.4840    0.7050   -3.3960 ha        1 MOL      0.107545
    130 H56        -8.8890   -0.6240    0.6680 ha        1 MOL      0.107545
    131 H57       -10.4630   -0.6880   -4.0250 ha        1 MOL      0.124084
    132 H58       -10.8510   -2.0000    0.0420 ha        1 MOL      0.124084
    133 H59       -11.8070   -1.7470   -2.2410 ha        1 MOL      0.098886
    134 N12        -6.6580   -2.5530   -0.1880 n         1 MOL      0.148950
    135 C45        -6.9520   -3.6630    0.7620 c3        1 MOL      0.040466
    136 C46        -5.7970   -4.0840    1.6920 c         1 MOL      0.224491
    137 O20        -6.0410   -4.5780    2.7700 o         1 MOL     -0.483415
    138 C47        -7.4220   -4.8820   -0.0890 c3        1 MOL     -0.065453
    139 C48        -7.6120   -4.3630   -1.5050 c3        1 MOL      0.011182
    140 C49        -6.6310   -3.1720   -1.5660 c3        1 MOL     -0.148206
    141 H60        -7.8280   -3.3780    1.3430 h1        1 MOL      0.059740
    142 H61        -6.6740   -5.6600   -0.0030 hc        1 MOL      0.040397
    143 H62        -8.4240   -5.1780    0.2550 hc        1 MOL      0.040397
    144 H63        -7.4380   -5.1470   -2.2390 hc        1 MOL      0.013970
    145 H64        -8.6170   -3.9640   -1.6190 hc        1 MOL      0.013970
    146 H65        -5.6570   -3.5880   -1.8400 h1        1 MOL      0.057150
    147 H66        -6.8890   -2.4080   -2.3060 h1        1 MOL      0.057150
    148 N13        -4.5300   -3.8660    1.2980 n         1 MOL     -0.062067
    149 C50        -3.4320   -3.9310    2.1880 c3        1 MOL     -0.179945
    150 C51        -3.3730   -2.8500    3.3110 c         1 MOL      0.414108
    151 O21        -2.6620   -3.0490    4.2970 o         1 MOL     -0.524333
    152 C52        -2.1230   -3.7390    1.3700 c3        1 MOL      0.127404
    153 C53        -1.6390   -5.0430    0.6640 c3        1 MOL     -0.303077
    154 C54        -0.4810   -4.7760   -0.2920 c         1 MOL      0.788908
    155 O22         0.7130   -4.7500    0.0510 o         1 MOL     -0.796294
    156 O23        -0.6670   -4.3360   -1.4980 o         1 MOL     -0.796294
    157 H67        -4.3260   -3.6010    0.3410 hn        1 MOL      0.189885
    158 H68        -3.4220   -4.8790    2.7270 h1        1 MOL      0.127062
    159 H69        -1.3910   -3.4070    2.1130 hc        1 MOL      0.051755
    160 H70        -2.2670   -3.0360    0.5460 hc        1 MOL      0.051755
    161 H71        -2.4310   -5.5830    0.1320 hc        1 MOL      0.047780
    162 H72        -1.3220   -5.6860    1.4760 hc        1 MOL      0.047780
    163 N14        -4.2510   -1.7840    3.2190 n         1 MOL     -0.061241
    164 C55        -4.3470   -0.6550    4.1500 c3        1 MOL     -0.251780
    165 H73        -4.4070    0.2760    3.5870 h1        1 MOL      0.095656
    166 H74        -5.2410   -0.7660    4.7640 h1        1 MOL      0.095656
    167 H75        -3.4660   -0.6360    4.7910 h1        1 MOL      0.095656
    168 H76        -4.8080   -1.6370    2.3910 hn        1 MOL      0.100734
    169 Ca1         1.3360   -2.8760   -1.9320 Ca        1 MOL      1.788854
    170 O24         3.1460   -2.9870   -3.8030 oh        1 MOL     -0.858592
    171 H77         3.2310   -2.6320   -4.6940 ho        1 MOL      0.414520
    172 H78         3.8920   -3.5620   -3.6970 ho        1 MOL      0.414520
    173 O25        -0.3230   -3.0000   -4.0330 oh        1 MOL     -0.858592
    174 H79        -0.5270   -3.4680   -4.8430 ho        1 MOL      0.414520
    175 H80        -1.1800   -2.8000   -3.6580 ho        1 MOL      0.414520
    176 O26         2.0300   -5.5120   -2.3340 oh        1 MOL     -0.858592
    177 H81         1.5940   -6.1850   -1.8050 ho        1 MOL      0.414520
    178 H82         2.8980   -5.8660   -2.5130 ho        1 MOL      0.414520
@<TRIPOS>BOND
     1    1    2 1   
     2    1    4 1   
     3    1    5 1   
     4    1    6 1   
     5    2    3 2   
     6    2    7 1   
     7    7    8 1   
     8    7   15 1   
     9    8    9 1   
    10    8   11 1   
    11    8   16 1   
    12    9   10 2   
    13    9   19 1   
    14   11   12 1   
    15   11   17 1   
    16   11   18 1   
    17   12   13 1   
    18   12   14 1   
    19   19   20 1   
    20   19   24 1   
    21   20   21 1   
    22   20   23 1   
    23   20   25 1   
    24   21   22 2   
    25   21   29 1   
    26   23   26 1   
    27   23   27 1   
    28   23   28 1   
    29   29   30 1   
    30   29   37 1   
    31   30   31 1   
    32   30   33 1   
    33   30   38 1   
    34   31   32 2   
    35   31   41 1   
    36   33   34 1   
    37   33   39 1   
    38   33   40 1   
    39   34   35 1   
    40   34   36 1   
    41   41   42 1   
    42   41   45 1   
    43   42   43 1   
    44   42   46 1   
    45   42   47 1   
    46   43   44 2   
    47   43   48 1   
    48   48   49 1   
    49   48   56 1   
    50   49   50 1   
    51   49   52 1   
    52   49   57 1   
    53   50   51 2   
    54   50   62 1   
    55   52   53 1   
    56   52   58 1   
    57   52   59 1   
    58   53   54 1   
    59   53   55 2   
    60   54   60 1   
    61   54   61 1   
    62   62   63 1   
    63   62   66 1   
    64   63   64 1   
    65   63   67 1   
    66   63   68 1   
    67   64   65 2   
    68   64   69 1   
    69   69   70 1   
    70   69   76 1   
    71   70   71 1   
    72   70   73 1   
    73   70   77 1   
    74   71   72 2   
    75   71   83 1   
    76   73   74 1   
    77   73   75 1   
    78   73   78 1   
    79   74   80 1   
    80   74   81 1   
    81   74   82 1   
    82   75   79 1   
    83   83   84 1   
    84   83   91 1   
    85   84   85 1   
    86   84   87 1   
    87   84   92 1   
    88   85   86 2   
    89   85  102 1   
    90   87   88 1   
    91   87   89 1   
    92   87   93 1   
    93   88   90 1   
    94   88   94 1   
    95   88   95 1   
    96   89   96 1   
    97   89   97 1   
    98   89   98 1   
    99   90   99 1   
   100   90  100 1   
   101   90  101 1   
   102  102  103 1   
   103  102  110 1   
   104  103  104 1   
   105  103  106 1   
   106  103  111 1   
   107  104  105 2   
   108  104  114 1   
   109  106  107 1   
   110  106  112 1   
   111  106  113 1   
   112  107  108 1   
   113  107  109 1   
   114  114  115 1   
   115  114  125 1   
   116  115  116 1   
   117  115  118 1   
   118  115  126 1   
   119  116  117 2   
   120  116  134 1   
   121  118  119 1   
   122  118  127 1   
   123  118  128 1   
   124  119  120 ar  
   125  119  121 ar  
   126  120  122 ar  
   127  120  129 1   
   128  121  123 ar  
   129  121  130 1   
   130  122  124 ar  
   131  122  131 1   
   132  123  124 ar  
   133  123  132 1   
   134  124  133 1   
   135  134  135 1   
   136  134  140 1   
   137  135  136 1   
   138  135  138 1   
   139  135  141 1   
   140  136  137 2   
   141  136  148 1   
   142  138  139 1   
   143  138  142 1   
   144  138  143 1   
   145  139  140 1   
   146  139  144 1   
   147  139  145 1   
   148  140  146 1   
   149  140  147 1   
   150  148  149 1   
   151  148  157 1   
   152  149  150 1   
   153  149  152 1   
   154  149  158 1   
   155  150  151 2   
   156  150  163 1   
   157  152  153 1   
   158  152  159 1   
   159  152  160 1   
   160  153  154 1   
   161  153  161 1   
   162  153  162 1   
   163  154  155 1   
   164  154  156 1   
   165  163  164 1   
   166  163  168 1   
   167  164  165 1   
   168  164  166 1   
   169  164  167 1   
   170  170  171 1   
   171  170  172 1   
   172  173  174 1   
   173  173  175 1   
   174  176  177 1   
   175  176  178 1   
@<TRIPOS>SUBSTRUCTURE
     1 MOL         1 TEMP              0 ****  ****    0 ROOT
