@<TRIPOS>MOLECULE
MOL
  181   177     1     0     0
SMALL
resp


@<TRIPOS>ATOM
      1 C1         10.8300    7.0670   -0.2590 c3        1 MOL     -0.358549
      2 C2          9.7370    6.0400    0.0810 c         1 MOL      0.608298
      3 O1          8.7920    6.3650    0.7790 o         1 MOL     -0.579782
      4 H1         10.3720    7.9550   -0.6930 hc        1 MOL      0.095230
      5 H2         11.3650    7.3420    0.6500 hc        1 MOL      0.095230
      6 H3         11.5280    6.6330   -0.9740 hc        1 MOL      0.095230
      7 N1          9.7170    4.7310   -0.2360 n         1 MOL     -0.472454
      8 C3         10.6730    4.0850   -1.1360 c3        1 MOL      0.219077
      9 C4         11.5390    3.1000   -0.3870 c         1 MOL      0.370660
     10 O2         12.5390    2.5940   -0.9150 o         1 MOL     -0.543120
     11 C5          9.8500    3.3940   -2.2230 c3        1 MOL     -0.317151
     12 C6          8.6830    2.5550   -1.8280 c         1 MOL      0.644852
     13 O3          7.9750    1.9450   -2.6350 o         1 MOL     -0.674269
     14 O4          8.4540    2.2720   -0.6200 o         1 MOL     -0.674269
     15 H4          8.9510    4.1960    0.1380 hn        1 MOL      0.313868
     16 H5         11.2930    4.7780   -1.7000 h1        1 MOL      0.050577
     17 H6         10.5070    2.7690   -2.8280 hc        1 MOL      0.089892
     18 H7          9.4760    4.2370   -2.8060 hc        1 MOL      0.089892
     19 N2         11.1160    2.7510    0.8400 n         1 MOL     -0.472858
     20 C7         11.9630    1.8740    1.7210 c3        1 MOL      0.323934
     21 C8         11.4850    0.4200    1.6920 c         1 MOL      0.303108
     22 O5         12.1190   -0.4510    2.3230 o         1 MOL     -0.543273
     23 C9         12.0740    2.4420    3.1810 c3        1 MOL     -0.228123
     24 H8         10.3010    3.2500    1.1790 hn        1 MOL      0.299773
     25 H9         12.9930    1.9050    1.3620 h1        1 MOL      0.041512
     26 H10        12.8340    1.8570    3.6840 hc        1 MOL      0.062772
     27 H11        12.3820    3.4840    3.1210 hc        1 MOL      0.062772
     28 H12        11.1050    2.5250    3.6770 hc        1 MOL      0.062772
     29 N3         10.3150    0.1310    1.0920 n         1 MOL     -0.151852
     30 C10         9.5860   -1.1440    1.3510 c3        1 MOL     -0.037706
     31 C11         8.9070   -1.6260    0.0450 c         1 MOL      0.252190
     32 O6          8.7710   -0.8910   -0.8950 o         1 MOL     -0.445922
     33 C12         8.6240   -1.0180    2.5760 c3        1 MOL     -0.213365
     34 C13         7.6270    0.1310    2.4010 c         1 MOL      0.691617
     35 O7          7.7470    1.1500    3.0710 o         1 MOL     -0.680594
     36 O8          6.7780    0.1150    1.5060 o         1 MOL     -0.680594
     37 H13         9.8040    0.8880    0.6720 hn        1 MOL      0.225924
     38 H14        10.3050   -1.8800    1.7030 h1        1 MOL      0.087610
     39 H15         9.2620   -0.7740    3.4350 hc        1 MOL      0.052028
     40 H16         8.0320   -1.9320    2.6830 hc        1 MOL      0.052028
     41 N4          8.6640   -2.8920    0.0670 n         1 MOL     -0.093808
     42 C14         7.8570   -3.5370   -0.9600 c3        1 MOL     -0.562844
     43 C15         6.4480   -3.1660   -1.0990 c         1 MOL      0.901248
     44 O9          6.0380   -2.1000   -0.7420 o         1 MOL     -0.615829
     45 H17         9.1210   -3.4560    0.7660 hn        1 MOL      0.256368
     46 H18         7.8800   -4.6100   -0.7710 h1        1 MOL      0.180114
     47 H19         8.3460   -3.3490   -1.9190 h1        1 MOL      0.180114
     48 N5          5.7110   -4.0920   -1.6920 n         1 MOL     -0.623314
     49 C16         4.3030   -3.9880   -2.2390 c3        1 MOL      0.141227
     50 C17         3.0940   -4.0270   -1.2010 c         1 MOL      0.648225
     51 O10         3.2210   -4.4940   -0.0920 o         1 MOL     -0.524827
     52 C18         4.1590   -5.0260   -3.3870 c3        1 MOL     -0.315067
     53 C19         4.8960   -4.6680   -4.5820 c         1 MOL      0.755110
     54 N6          5.8660   -5.4650   -5.0740 n         1 MOL     -0.843625
     55 O11         4.7400   -3.5440   -5.0380 o         1 MOL     -0.565372
     56 H20         6.3040   -4.7790   -2.1480 hn        1 MOL      0.278995
     57 H21         4.2450   -2.9870   -2.6780 h1        1 MOL      0.047971
     58 H22         3.1130   -5.0880   -3.6720 hc        1 MOL      0.090756
     59 H23         4.4160   -6.0200   -3.0060 hc        1 MOL      0.090756
     60 H24         6.0340   -6.4350   -4.8390 hn        1 MOL      0.374659
     61 H25         6.4150   -5.0920   -5.8370 hn        1 MOL      0.374659
     62 N7          1.9030   -3.4420   -1.5420 n         1 MOL     -0.596763
     63 C20         0.6980   -3.4440   -0.6620 c3        1 MOL     -0.072551
     64 C21         0.8920   -2.4800    0.5270 c         1 MOL      0.861603
     65 O12         1.5750   -1.5220    0.4490 o         1 MOL     -0.639693
     66 H26         1.7530   -3.0840   -2.4730 hn        1 MOL      0.324824
     67 H27         0.4410   -4.4580   -0.3610 h1        1 MOL      0.130172
     68 H28        -0.1540   -3.2000   -1.2960 h1        1 MOL      0.130172
     69 N8          0.2150   -2.7150    1.6550 n         1 MOL     -0.711795
     70 C22        -0.7230   -3.8670    1.9470 c3        1 MOL     -0.052702
     71 C23        -2.1740   -3.3870    1.9190 c         1 MOL      0.529008
     72 O13        -3.0720   -4.1540    1.6320 o         1 MOL     -0.581977
     73 C24        -0.4510   -4.6570    3.2310 c3        1 MOL      0.372421
     74 C25         0.8170   -5.4490    3.2000 c3        1 MOL     -0.427870
     75 O14        -0.3970   -3.7140    4.3000 oh        1 MOL     -0.562566
     76 H29         0.2610   -2.0080    2.3680 hn        1 MOL      0.378544
     77 H30        -0.6290   -4.5940    1.1410 h1        1 MOL      0.058986
     78 H31        -1.2160   -5.4280    3.3360 h1        1 MOL      0.064978
     79 H32         0.3450   -3.1340    4.1410 ho        1 MOL      0.366830
     80 H33         0.9030   -6.0580    2.2970 hc        1 MOL      0.104334
     81 H34         1.7150   -4.8290    3.2040 hc        1 MOL      0.104334
     82 H35         0.9580   -6.1210    4.0560 hc        1 MOL      0.104334
     83 N9         -2.4550   -2.2230    2.4740 n         1 MOL     -0.291151
     84 C26        -3.7920   -1.6350    2.5470 c3        1 MOL      0.183198
     85 C27        -3.7800   -0.4600    1.5370 c         1 MOL      0.298429
     86 O15        -2.7480    0.2650    1.5410 o         1 MOL     -0.572948
     87 C28        -4.0780   -1.0540    3.9460 c3        1 MOL      0.069560
     88 C29        -3.7000   -1.9820    5.1370 c3        1 MOL     -0.368852
     89 C30        -5.5470   -0.7450    4.0550 c3        1 MOL      0.140267
     90 C31        -4.0600   -3.4950    5.0580 c3        1 MOL     -0.123648
     91 H36        -1.6680   -1.6880    2.8030 hn        1 MOL      0.196242
     92 H37        -4.5750   -2.3610    2.3270 h1        1 MOL      0.089979
     93 H38        -3.6110   -0.0850    4.0710 hc        1 MOL      0.042038
     94 H39        -4.2310   -1.5790    5.9990 hc        1 MOL      0.102111
     95 H40        -2.6210   -2.0670    5.2480 hc        1 MOL      0.102111
     96 H41        -5.8800   -0.1400    3.2160 hc        1 MOL     -0.031570
     97 H42        -6.1180   -1.6740    3.9460 hc        1 MOL     -0.031570
     98 H43        -5.7640   -0.2070    4.9700 hc        1 MOL     -0.031570
     99 H44        -3.9060   -3.9210    6.0550 hc        1 MOL      0.036301
    100 H45        -5.0850   -3.5190    4.6890 hc        1 MOL      0.036301
    101 H46        -3.4570   -4.0640    4.3440 hc        1 MOL      0.036301
    102 N10        -4.7290   -0.2790    0.6670 n         1 MOL     -0.085173
    103 C32        -5.9950   -1.0830    0.4720 c3        1 MOL     -0.026913
    104 C33        -6.9640   -0.2680   -0.4740 c         1 MOL      0.373778
    105 O16        -6.5790    0.6430   -1.2670 o         1 MOL     -0.480995
    106 C34        -5.7020   -2.3930   -0.1970 c3        1 MOL     -0.082662
    107 C35        -5.1520   -2.3040   -1.5490 c         1 MOL      0.796995
    108 O17        -3.9380   -2.0940   -1.6420 o         1 MOL     -0.750594
    109 O18        -5.9430   -2.6130   -2.5040 o         1 MOL     -0.750594
    110 H47        -4.6410    0.5100    0.0500 hn        1 MOL      0.221384
    111 H48        -6.5490   -1.1750    1.4060 h1        1 MOL      0.035729
    112 H49        -6.6420   -2.9570   -0.1820 hc        1 MOL     -0.011621
    113 H50        -4.9540   -2.9620    0.3570 hc        1 MOL     -0.011621
    114 N11        -8.2870   -0.5300   -0.3790 n         1 MOL     -0.403185
    115 C36        -9.2760    0.2330   -1.1020 c3        1 MOL      0.192935
    116 C37       -10.3320    0.6860   -0.0950 c         1 MOL      0.450375
    117 O19       -10.5870    0.0140    0.8800 o         1 MOL     -0.520796
    118 C38        -9.7160   -0.5690   -2.2770 c3        1 MOL     -0.295216
    119 C39       -10.5340   -1.8130   -1.8640 ca        1 MOL      0.125078
    120 C40       -11.9480   -1.7060   -1.6350 ca        1 MOL     -0.182931
    121 C41        -9.9200   -3.0970   -1.8050 ca        1 MOL     -0.182931
    122 C42       -12.6670   -2.8630   -1.3980 ca        1 MOL     -0.076045
    123 C43       -10.6940   -4.2380   -1.6960 ca        1 MOL     -0.076045
    124 C44       -12.0690   -4.1100   -1.4200 ca        1 MOL     -0.155676
    125 H51        -8.5390   -1.4000    0.0690 hn        1 MOL      0.321352
    126 H52        -8.7730    1.1220   -1.4630 h1        1 MOL      0.082982
    127 H53        -8.8280   -0.9300   -2.8060 hc        1 MOL      0.112163
    128 H54       -10.2360    0.0410   -3.0090 hc        1 MOL      0.112163
    129 H55       -12.4790   -0.7590   -1.6930 ha        1 MOL      0.135880
    130 H56        -8.9100   -3.2950   -2.1120 ha        1 MOL      0.135880
    131 H57       -13.7500   -2.9460   -1.3950 ha        1 MOL      0.085712
    132 H58       -10.2460   -5.1750   -1.9930 ha        1 MOL      0.085712
    133 H59       -12.7060   -4.9600   -1.2860 ha        1 MOL      0.090110
    134 N12       -10.9640    1.9060   -0.2390 n         1 MOL     -0.139562
    135 C45       -10.9630    2.6960   -1.4830 c3        1 MOL      0.084679
    136 C46        -9.6980    3.5380   -1.5870 c         1 MOL      0.422778
    137 O20        -9.2140    3.7250   -2.7280 o         1 MOL     -0.572213
    138 C47       -12.1720    3.5560   -1.3990 c3        1 MOL     -0.316007
    139 C48       -13.1990    2.7200   -0.5750 c3        1 MOL      0.112574
    140 C49       -12.2340    2.2580    0.4470 c3        1 MOL     -0.262841
    141 H60       -10.9880    2.0220   -2.3450 h1        1 MOL      0.048421
    142 H61       -12.0270    4.5300   -0.9440 hc        1 MOL      0.106529
    143 H62       -12.5700    3.7170   -2.4060 hc        1 MOL      0.106529
    144 H63       -14.0850    3.2290   -0.2100 hc        1 MOL      0.002167
    145 H64       -13.4730    1.8240   -1.1410 hc        1 MOL      0.002167
    146 H65       -12.1210    3.1090    1.1310 h1        1 MOL      0.122498
    147 H66       -12.6380    1.4450    1.0470 h1        1 MOL      0.122498
    148 N13        -9.1080    3.9360   -0.4810 n         1 MOL     -0.363012
    149 C50        -7.6540    4.3130   -0.3920 c3        1 MOL      0.135701
    150 C51        -7.3840    5.6330   -1.0950 c         1 MOL      0.369038
    151 O21        -7.6010    6.7000   -0.5560 o         1 MOL     -0.588154
    152 C52        -7.1870    4.5010    1.1080 c3        1 MOL      0.155194
    153 C53        -7.2680    3.1430    1.8760 c3        1 MOL     -0.090547
    154 C54        -7.0400    3.3730    3.4040 c         1 MOL      0.705682
    155 O22        -7.9690    2.9730    4.2030 o         1 MOL     -0.740247
    156 O23        -6.0270    3.9490    3.7480 o         1 MOL     -0.740247
    157 H67        -9.6680    3.9760    0.3590 hn        1 MOL      0.282964
    158 H68        -7.0950    3.4930   -0.8320 h1        1 MOL      0.061725
    159 H69        -7.7450    5.3380    1.5330 hc        1 MOL     -0.020274
    160 H70        -6.1170    4.6850    1.1350 hc        1 MOL     -0.020274
    161 H71        -6.5430    2.4680    1.4200 hc        1 MOL     -0.056818
    162 H72        -8.2940    2.7890    1.7690 hc        1 MOL     -0.056818
    163 N14        -6.9010    5.7550   -2.2880 n         1 MOL     -0.192972
    164 C55        -6.2080    4.8000   -3.1220 c3        1 MOL     -0.170859
    165 H73        -5.1620    5.0930   -3.2150 h1        1 MOL      0.078760
    166 H74        -6.2690    3.8100   -2.6710 h1        1 MOL      0.078760
    167 H75        -6.6680    4.7790   -4.1100 h1        1 MOL      0.078760
    168 H76        -6.9320    6.7110   -2.6080 hn        1 MOL      0.226533
    169 Ca1         6.4250    0.6070   -0.9890 Ca        1 MOL      1.784825
    170 O24         5.1180    2.0740   -2.8470 oh        1 MOL     -0.872150
    171 H77         5.2980    2.4180   -3.7220 ho        1 MOL      0.425850
    172 H78         4.2940    2.4870   -2.5970 ho        1 MOL      0.425850
    173 O25         6.0750   -0.6680   -3.3040 oh        1 MOL     -0.872150
    174 H79         5.2250   -0.4900   -3.6960 ho        1 MOL      0.425850
    175 H80         6.4980   -1.2880   -3.8870 ho        1 MOL      0.425850
    176 O26         3.9350    0.1720   -0.0420 oh        1 MOL     -0.872150
    177 H81         3.3390   -0.5690    0.0300 ho        1 MOL      0.425850
    178 H82         3.5310    0.8600    0.4980 ho        1 MOL      0.425850
    179 O27         5.3330    2.8110    0.2720 oh        1 MOL     -0.872150
    180 H83         5.2150    3.0920    1.1760 ho        1 MOL      0.425850
    181 H84         4.6290    3.2450   -0.2140 ho        1 MOL      0.425850
@<TRIPOS>BOND
     1    1    2 1   
     2    1    4 1   
     3    1    5 1   
     4    1    6 1   
     5    2    3 2   
     6    2    7 1   
     7    7    8 1   
     8    7   15 1   
     9    8    9 1   
    10    8   11 1   
    11    8   16 1   
    12    9   10 2   
    13    9   19 1   
    14   11   12 1   
    15   11   17 1   
    16   11   18 1   
    17   12   13 1   
    18   12   14 1   
    19   19   20 1   
    20   19   24 1   
    21   20   21 1   
    22   20   23 1   
    23   20   25 1   
    24   21   22 2   
    25   21   29 1   
    26   23   26 1   
    27   23   27 1   
    28   23   28 1   
    29   29   30 1   
    30   29   37 1   
    31   30   31 1   
    32   30   33 1   
    33   30   38 1   
    34   31   32 2   
    35   31   41 1   
    36   33   34 1   
    37   33   39 1   
    38   33   40 1   
    39   34   35 1   
    40   34   36 1   
    41   41   42 1   
    42   41   45 1   
    43   42   43 1   
    44   42   46 1   
    45   42   47 1   
    46   43   44 2   
    47   43   48 1   
    48   48   49 1   
    49   48   56 1   
    50   49   50 1   
    51   49   52 1   
    52   49   57 1   
    53   50   51 2   
    54   50   62 1   
    55   52   53 1   
    56   52   58 1   
    57   52   59 1   
    58   53   54 1   
    59   53   55 2   
    60   54   60 1   
    61   54   61 1   
    62   62   63 1   
    63   62   66 1   
    64   63   64 1   
    65   63   67 1   
    66   63   68 1   
    67   64   65 2   
    68   64   69 1   
    69   69   70 1   
    70   69   76 1   
    71   70   71 1   
    72   70   73 1   
    73   70   77 1   
    74   71   72 2   
    75   71   83 1   
    76   73   74 1   
    77   73   75 1   
    78   73   78 1   
    79   74   80 1   
    80   74   81 1   
    81   74   82 1   
    82   75   79 1   
    83   83   84 1   
    84   83   91 1   
    85   84   85 1   
    86   84   87 1   
    87   84   92 1   
    88   85   86 2   
    89   85  102 1   
    90   87   88 1   
    91   87   89 1   
    92   87   93 1   
    93   88   90 1   
    94   88   94 1   
    95   88   95 1   
    96   89   96 1   
    97   89   97 1   
    98   89   98 1   
    99   90   99 1   
   100   90  100 1   
   101   90  101 1   
   102  102  103 1   
   103  102  110 1   
   104  103  104 1   
   105  103  106 1   
   106  103  111 1   
   107  104  105 2   
   108  104  114 1   
   109  106  107 1   
   110  106  112 1   
   111  106  113 1   
   112  107  108 1   
   113  107  109 1   
   114  114  115 1   
   115  114  125 1   
   116  115  116 1   
   117  115  118 1   
   118  115  126 1   
   119  116  117 2   
   120  116  134 1   
   121  118  119 1   
   122  118  127 1   
   123  118  128 1   
   124  119  120 ar  
   125  119  121 ar  
   126  120  122 ar  
   127  120  129 1   
   128  121  123 ar  
   129  121  130 1   
   130  122  124 ar  
   131  122  131 1   
   132  123  124 ar  
   133  123  132 1   
   134  124  133 1   
   135  134  135 1   
   136  134  140 1   
   137  135  136 1   
   138  135  138 1   
   139  135  141 1   
   140  136  137 2   
   141  136  148 1   
   142  138  139 1   
   143  138  142 1   
   144  138  143 1   
   145  139  140 1   
   146  139  144 1   
   147  139  145 1   
   148  140  146 1   
   149  140  147 1   
   150  148  149 1   
   151  148  157 1   
   152  149  150 1   
   153  149  152 1   
   154  149  158 1   
   155  150  151 2   
   156  150  163 1   
   157  152  153 1   
   158  152  159 1   
   159  152  160 1   
   160  153  154 1   
   161  153  161 1   
   162  153  162 1   
   163  154  155 1   
   164  154  156 1   
   165  163  164 1   
   166  163  168 1   
   167  164  165 1   
   168  164  166 1   
   169  164  167 1   
   170  170  171 1   
   171  170  172 1   
   172  173  174 1   
   173  173  175 1   
   174  176  177 1   
   175  176  178 1   
   176  179  180 1   
   177  179  181 1   
@<TRIPOS>SUBSTRUCTURE
     1 MOL         1 TEMP              0 ****  ****    0 ROOT
