@<TRIPOS>MOLECULE
MOL
  191   184     1     0     0
SMALL
resp


@<TRIPOS>ATOM
      1 C1          5.3820   -0.9820    5.6630 c3        1 MOL     -0.454219
      2 C2          4.4000   -0.5380    4.5200 c         1 MOL      0.693919
      3 O1          3.3220   -0.0030    4.7860 o         1 MOL     -0.585032
      4 H1          5.7280   -1.9970    5.4710 hc        1 MOL      0.119535
      5 H2          6.2370   -0.3060    5.6910 hc        1 MOL      0.119535
      6 H3          4.8630   -0.9510    6.6210 hc        1 MOL      0.119535
      7 N1          4.6640   -0.8500    3.2480 n         1 MOL     -0.513908
      8 C3          3.7360   -0.7160    2.1050 c3        1 MOL      0.027605
      9 C4          3.6030   -2.0100    1.2680 c         1 MOL      0.228561
     10 O2          2.5700   -2.1550    0.6190 o         1 MOL     -0.428092
     11 C5          4.1100    0.3810    1.1610 c3        1 MOL      0.036809
     12 C6          5.5800    0.2520    0.8000 c         1 MOL      0.649350
     13 O3          6.3280    1.0870    1.3900 o         1 MOL     -0.681169
     14 O4          5.9620   -0.5650   -0.0090 o         1 MOL     -0.681169
     15 H4          5.5750   -1.2440    3.0620 hn        1 MOL      0.291057
     16 H5          2.7610   -0.4930    2.5490 h1        1 MOL      0.107600
     17 H6          3.9950    1.2890    1.7470 hc        1 MOL     -0.023163
     18 H7          3.4290    0.3850    0.3130 hc        1 MOL     -0.023163
     19 N2          4.5750   -2.8980    1.2390 n         1 MOL     -0.134592
     20 C7          4.5650   -4.2400    0.7760 c3        1 MOL      0.156565
     21 C8          4.9170   -4.4190   -0.7120 c         1 MOL      0.445476
     22 O5          5.8450   -5.1150   -1.0440 o         1 MOL     -0.544684
     23 C9          5.3620   -5.2350    1.7280 c3        1 MOL     -0.150386
     24 C10         4.6550   -5.3980    3.0730 c3        1 MOL      0.018129
     25 C11         5.7330   -6.0160    3.9940 c3        1 MOL     -0.043256
     26 C12         5.8970   -7.5070    3.6860 c3        1 MOL      0.153580
     27 N3          6.8500   -8.2470    4.5950 n4        1 MOL     -0.504630
     28 H8          5.4080   -2.6840    1.7680 hn        1 MOL      0.237064
     29 H9          3.5380   -4.6150    0.8490 h1        1 MOL     -0.033229
     30 H10         6.3820   -4.8490    1.7820 hc        1 MOL      0.058545
     31 H11         5.3520   -6.2580    1.3520 hc        1 MOL      0.058545
     32 H12         3.8190   -6.0950    3.0420 hc        1 MOL      0.007679
     33 H13         4.4230   -4.3960    3.4300 hc        1 MOL      0.007679
     34 H14         5.4210   -5.9390    5.0370 hc        1 MOL      0.013918
     35 H15         6.6670   -5.4570    3.9050 hc        1 MOL      0.013918
     36 H16         6.2780   -7.6650    2.6700 hx        1 MOL      0.069114
     37 H17         4.9280   -7.9920    3.7730 hx        1 MOL      0.069114
     38 H18         7.8090   -7.9470    4.4830 hn        1 MOL      0.365146
     39 H19         6.5170   -8.1970    5.5450 hn        1 MOL      0.365146
     40 H20         6.7560   -9.2230    4.3330 hn        1 MOL      0.365146
     41 N4          4.2000   -3.6470   -1.5300 n         1 MOL     -0.295331
     42 C13         4.2630   -3.4510   -2.9780 c3        1 MOL      0.131743
     43 C14         4.2360   -1.9880   -3.4170 c         1 MOL      0.460341
     44 O6          3.7960   -1.5890   -4.5300 o         1 MOL     -0.533632
     45 C15         3.1430   -4.2100   -3.6790 c3        1 MOL     -0.192644
     46 C16         1.7420   -3.8580   -3.2060 c         1 MOL      0.694844
     47 O7          1.4810   -3.2480   -2.1250 o         1 MOL     -0.677777
     48 O8          0.7970   -4.3520   -3.8410 o         1 MOL     -0.677777
     49 H21         3.3610   -3.2100   -1.1700 hn        1 MOL      0.060126
     50 H22         5.1830   -3.8800   -3.3780 h1        1 MOL      0.076297
     51 H23         3.3530   -5.2470   -3.4110 hc        1 MOL      0.055084
     52 H24         3.4020   -4.0630   -4.7290 hc        1 MOL      0.055084
     53 N5          4.6970   -1.0770   -2.5820 n         1 MOL     -0.362862
     54 C17         5.0070    0.3330   -2.9090 c3        1 MOL     -0.002231
     55 C18         6.3410    0.5980   -3.5510 c         1 MOL      0.714973
     56 O9          7.0620   -0.2850   -3.9670 o         1 MOL     -0.557136
     57 H25         4.9410   -1.4040   -1.6590 hn        1 MOL      0.245398
     58 H26         5.0040    0.8630   -1.9550 h1        1 MOL      0.049518
     59 H27         4.2040    0.7110   -3.5400 h1        1 MOL      0.049518
     60 N6          6.6910    1.8620   -3.8140 n         1 MOL     -0.677656
     61 C19         6.0210    3.0910   -3.3600 c3        1 MOL      0.292209
     62 C20         6.3990    3.4130   -1.8880 c         1 MOL      0.289416
     63 O10         7.5910    3.3380   -1.4900 o         1 MOL     -0.479416
     64 C21         6.5200    4.1940   -4.2850 c3        1 MOL     -0.192763
     65 C22         5.9740    5.5630   -3.9550 c         1 MOL      0.644610
     66 N7          5.3230    6.2400   -4.8680 n         1 MOL     -0.779317
     67 O11         5.9670    5.9400   -2.7740 o         1 MOL     -0.526229
     68 H28         7.6190    2.0250   -4.1770 hn        1 MOL      0.352718
     69 H29         4.9530    3.0370   -3.5280 h1        1 MOL      0.017665
     70 H30         6.3950    3.9340   -5.3340 hc        1 MOL      0.055041
     71 H31         7.6060    4.2340   -4.2170 hc        1 MOL      0.055041
     72 H32         5.0860    5.8700   -5.7810 hn        1 MOL      0.359838
     73 H33         5.2200    7.2380   -4.7390 hn        1 MOL      0.359838
     74 N8          5.4430    3.6150   -0.9870 n         1 MOL     -0.187867
     75 C23         4.0260    3.5950   -1.1950 c3        1 MOL     -0.075794
     76 C24         3.1330    4.1580   -0.0840 c         1 MOL      0.646710
     77 O12         3.5490    5.0270    0.7040 o         1 MOL     -0.500050
     78 H34         5.6940    3.7280   -0.0170 hn        1 MOL      0.258643
     79 H35         3.7470    2.5700   -1.4240 h1        1 MOL      0.015003
     80 H36         3.9630    4.2470   -2.0660 h1        1 MOL      0.015003
     81 N9          1.8010    3.8120   -0.1380 n         1 MOL     -0.555567
     82 C25         0.7940    4.2540    0.7950 c3        1 MOL      0.049196
     83 C26        -0.5030    3.4470    0.6210 c         1 MOL      0.647103
     84 O13        -0.5680    2.5810   -0.2400 o         1 MOL     -0.508159
     85 C27         0.4410    5.7630    0.5150 c3        1 MOL     -0.226466
     86 C28        -0.3400    6.4430    1.6050 ca        1 MOL      0.033150
     87 C29        -1.5960    7.0500    1.4210 ca        1 MOL     -0.102458
     88 C30         0.1810    6.4390    2.9080 ca        1 MOL     -0.102458
     89 C31        -2.3830    7.5890    2.4330 ca        1 MOL     -0.274663
     90 C32        -0.4790    7.2010    3.9260 ca        1 MOL     -0.274663
     91 C33        -1.8110    7.7170    3.7030 ca        1 MOL      0.336120
     92 O14        -2.4490    8.4650    4.6330 oh        1 MOL     -0.484240
     93 H37         1.4670    3.2460   -0.9130 hn        1 MOL      0.299646
     94 H38         1.0820    4.1530    1.8480 h1        1 MOL      0.083464
     95 H39        -0.0790    5.7870   -0.4430 hc        1 MOL      0.114133
     96 H40         1.3470    6.3680    0.4330 hc        1 MOL      0.114133
     97 H41        -1.9250    7.1630    0.4080 ha        1 MOL      0.127021
     98 H42         1.1270    5.9420    3.0440 ha        1 MOL      0.127021
     99 H43        -3.3640    8.0240    2.2910 ha        1 MOL      0.145959
    100 H44        -0.1030    7.3100    4.9370 ha        1 MOL      0.145959
    101 H45        -2.0420    8.4530    5.5010 ho        1 MOL      0.370392
    102 N10        -1.4200    3.5560    1.5520 n         1 MOL     -0.552158
    103 C34        -2.6300    2.7890    1.5920 c3        1 MOL     -0.100984
    104 C35        -3.6450    3.2350    0.5620 c         1 MOL      0.554646
    105 O15        -3.5730    4.3020   -0.0550 o         1 MOL     -0.518364
    106 C36        -3.3100    2.8550    3.0270 c3        1 MOL      0.124761
    107 C37        -2.8040    1.7570    3.8820 c3        1 MOL     -0.037721
    108 C38        -3.0300    4.2730    3.6550 c3        1 MOL      0.146185
    109 C39        -3.4470    1.6460    5.2740 c3        1 MOL     -0.235184
    110 H46        -1.4340    4.3760    2.1360 hn        1 MOL      0.284036
    111 H47        -2.3280    1.7590    1.4020 h1        1 MOL     -0.031054
    112 H48        -4.4000    2.8260    2.9240 hc        1 MOL     -0.000773
    113 H49        -1.7360    1.9270    3.9910 hc        1 MOL      0.042496
    114 H50        -2.7880    0.8070    3.3570 hc        1 MOL      0.042496
    115 H51        -3.2780    5.0560    2.9300 hc        1 MOL     -0.030015
    116 H52        -3.6580    4.5370    4.5040 hc        1 MOL     -0.030015
    117 H53        -1.9950    4.3300    3.9900 hc        1 MOL     -0.030015
    118 H54        -2.8850    0.8440    5.7400 hc        1 MOL      0.063165
    119 H55        -3.1720    2.4720    5.9320 hc        1 MOL      0.063165
    120 H56        -4.5000    1.3990    5.3370 hc        1 MOL      0.063165
    121 N11        -4.6370    2.4130    0.3550 n         1 MOL     -0.301557
    122 C40        -5.7470    2.6020   -0.6180 c3        1 MOL     -0.041734
    123 C41        -6.1000    1.4590   -1.5610 c         1 MOL      0.680411
    124 O16        -5.4880    0.3560   -1.4380 o         1 MOL     -0.519807
    125 C42        -7.0060    3.0900    0.0540 c3        1 MOL     -0.016628
    126 O17        -7.4810    2.1730    1.0140 oh        1 MOL     -0.587660
    127 H57        -4.6170    1.4910    0.7710 hn        1 MOL      0.255602
    128 H58        -5.4190    3.3030   -1.3840 h1        1 MOL      0.067356
    129 H59        -7.7670    3.3710   -0.6790 h1        1 MOL      0.067815
    130 H60        -6.8200    4.0110    0.6100 h1        1 MOL      0.067815
    131 H61        -8.1530    2.6730    1.4950 ho        1 MOL      0.414904
    132 N12        -6.8390    1.7670   -2.6440 n         1 MOL     -0.545688
    133 C43        -7.0880    0.8760   -3.7090 c3        1 MOL      0.037880
    134 C44        -7.5620   -0.4960   -3.2820 c         1 MOL      0.588249
    135 O18        -7.0630   -1.4720   -3.7530 o         1 MOL     -0.476617
    136 C45        -5.8890    0.9330   -4.6490 c3        1 MOL     -0.344828
    137 H62        -7.2590    2.6670   -2.7850 hn        1 MOL      0.329007
    138 H63        -7.9140    1.3190   -4.2570 h1        1 MOL      0.073849
    139 H64        -5.0090    0.5850   -4.1160 hc        1 MOL      0.115905
    140 H65        -5.9440    0.2860   -5.5280 hc        1 MOL      0.115905
    141 H66        -5.6870    1.9200   -5.0810 hc        1 MOL      0.115905
    142 N13        -8.5880   -0.5080   -2.4620 n         1 MOL     -0.547578
    143 C46        -9.3380   -1.7450   -2.1260 c3        1 MOL      0.334027
    144 C47        -8.5380   -3.0210   -1.6570 c         1 MOL      0.538376
    145 O19        -8.9040   -4.1620   -2.0210 o         1 MOL     -0.519468
    146 C48       -10.4790   -2.0520   -3.0660 c3        1 MOL     -0.263157
    147 H67        -8.9250    0.4060   -2.1910 hn        1 MOL      0.266760
    148 H68        -9.9630   -1.5190   -1.2580 h1        1 MOL     -0.012329
    149 H69       -10.9600   -2.9510   -2.6970 hc        1 MOL      0.065121
    150 H70       -11.1520   -1.2010   -3.2370 hc        1 MOL      0.065121
    151 H71        -9.9740   -2.1590   -4.0210 hc        1 MOL      0.065121
    152 N14        -7.5690   -2.7890   -0.8000 n         1 MOL     -0.688155
    153 C49        -6.7060   -3.8410   -0.1780 c3        1 MOL      0.542628
    154 C50        -7.2120   -4.3620    1.1870 c         1 MOL      0.263344
    155 O20        -7.3910   -5.5570    1.4160 o         1 MOL     -0.490974
    156 C51        -5.2700   -3.3210   -0.0300 c3        1 MOL      0.126085
    157 C52        -4.2620   -4.1500    0.7280 c3        1 MOL     -0.430141
    158 C53        -2.8630   -3.5790    0.6110 c         1 MOL      0.906016
    159 O21        -2.0440   -4.0120   -0.2450 o         1 MOL     -0.808043
    160 O22        -2.3540   -2.7690    1.4410 o         1 MOL     -0.808043
    161 H72        -7.4210   -1.8340   -0.4930 hn        1 MOL      0.243601
    162 H73        -6.6110   -4.7240   -0.8070 h1        1 MOL     -0.004250
    163 H74        -5.3670   -2.4200    0.5710 hc        1 MOL     -0.026864
    164 H75        -4.9080   -3.1090   -1.0390 hc        1 MOL     -0.026864
    165 H76        -4.3280   -5.1280    0.2320 hc        1 MOL      0.098784
    166 H77        -4.5000   -4.2810    1.7850 hc        1 MOL      0.098784
    167 N15        -7.4230   -3.4800    2.1540 n         1 MOL     -0.209340
    168 C54        -7.7790   -3.9110    3.5260 c3        1 MOL     -0.499766
    169 H78        -6.9310   -4.4310    3.9740 h1        1 MOL      0.183662
    170 H79        -8.0300   -3.0380    4.1290 h1        1 MOL      0.183662
    171 H80        -8.6370   -4.5830    3.4850 h1        1 MOL      0.183662
    172 H81        -7.3310   -2.4890    1.9740 hn        1 MOL      0.248336
    173 Ca1        -0.0440   -2.0780    0.0090 Ca        1 MOL      1.782455
    174 O23         0.6850   -2.2740    2.8120 oh        1 MOL     -0.836260
    175 H82         1.4160   -2.7830    3.1710 ho        1 MOL      0.412057
    176 H83         0.2560   -1.8960    3.5820 ho        1 MOL      0.412057
    177 O24        -1.1990   -2.8930   -2.4490 oh        1 MOL     -0.836260
    178 H84        -0.3900   -3.2060   -2.8560 ho        1 MOL      0.412057
    179 H85        -1.5830   -3.6750   -2.0570 ho        1 MOL      0.412057
    180 O25         0.8340   -0.0230   -1.4680 oh        1 MOL     -0.836260
    181 H86         0.9500   -0.1660   -2.4060 ho        1 MOL      0.412057
    182 H87         0.7310    0.9240   -1.3890 ho        1 MOL      0.412057
    183 O26        -2.2280   -0.3360   -0.7870 oh        1 MOL     -0.836260
    184 H88        -2.9410   -0.2620   -0.1560 ho        1 MOL      0.412057
    185 H89        -2.4020    0.3640   -1.4180 ho        1 MOL      0.412057
    186 O27         0.9590   -4.6970    0.0590 oh        1 MOL     -0.836260
    187 H90         1.5360   -4.4660   -0.6690 ho        1 MOL      0.412057
    188 H91         1.0120   -5.6480    0.1300 ho        1 MOL      0.412057
    189 O28        -0.1230    0.4210    1.3730 oh        1 MOL     -0.836260
    190 H92        -0.0030    0.7060    2.2810 ho        1 MOL      0.412057
    191 H93        -0.5240    1.1750    0.9380 ho        1 MOL      0.412057
@<TRIPOS>BOND
     1    1    2 1   
     2    1    4 1   
     3    1    5 1   
     4    1    6 1   
     5    2    3 2   
     6    2    7 1   
     7    7    8 1   
     8    7   15 1   
     9    8    9 1   
    10    8   11 1   
    11    8   16 1   
    12    9   10 2   
    13    9   19 1   
    14   11   12 1   
    15   11   17 1   
    16   11   18 1   
    17   12   13 1   
    18   12   14 1   
    19   19   20 1   
    20   19   28 1   
    21   20   21 1   
    22   20   23 1   
    23   20   29 1   
    24   21   22 2   
    25   21   41 1   
    26   23   24 1   
    27   23   30 1   
    28   23   31 1   
    29   24   25 1   
    30   24   32 1   
    31   24   33 1   
    32   25   26 1   
    33   25   34 1   
    34   25   35 1   
    35   26   27 1   
    36   26   36 1   
    37   26   37 1   
    38   27   38 1   
    39   27   39 1   
    40   27   40 1   
    41   41   42 1   
    42   41   49 1   
    43   42   43 1   
    44   42   45 1   
    45   42   50 1   
    46   43   44 2   
    47   43   53 1   
    48   45   46 1   
    49   45   51 1   
    50   45   52 1   
    51   46   47 1   
    52   46   48 1   
    53   53   54 1   
    54   53   57 1   
    55   54   55 1   
    56   54   58 1   
    57   54   59 1   
    58   55   56 2   
    59   55   60 1   
    60   60   61 1   
    61   60   68 1   
    62   61   62 1   
    63   61   64 1   
    64   61   69 1   
    65   62   63 2   
    66   62   74 1   
    67   64   65 1   
    68   64   70 1   
    69   64   71 1   
    70   65   66 1   
    71   65   67 2   
    72   66   72 1   
    73   66   73 1   
    74   74   75 1   
    75   74   78 1   
    76   75   76 1   
    77   75   79 1   
    78   75   80 1   
    79   76   77 2   
    80   76   81 1   
    81   81   82 1   
    82   81   93 1   
    83   82   83 1   
    84   82   85 1   
    85   82   94 1   
    86   83   84 2   
    87   83  102 1   
    88   85   86 1   
    89   85   95 1   
    90   85   96 1   
    91   86   87 ar  
    92   86   88 ar  
    93   87   89 ar  
    94   87   97 1   
    95   88   90 ar  
    96   88   98 1   
    97   89   91 ar  
    98   89   99 1   
    99   90   91 ar  
   100   90  100 1   
   101   91   92 1   
   102   92  101 1   
   103  102  103 1   
   104  102  110 1   
   105  103  104 1   
   106  103  106 1   
   107  103  111 1   
   108  104  105 2   
   109  104  121 1   
   110  106  107 1   
   111  106  108 1   
   112  106  112 1   
   113  107  109 1   
   114  107  113 1   
   115  107  114 1   
   116  108  115 1   
   117  108  116 1   
   118  108  117 1   
   119  109  118 1   
   120  109  119 1   
   121  109  120 1   
   122  121  122 1   
   123  121  127 1   
   124  122  123 1   
   125  122  125 1   
   126  122  128 1   
   127  123  124 2   
   128  123  132 1   
   129  125  126 1   
   130  125  129 1   
   131  125  130 1   
   132  126  131 1   
   133  132  133 1   
   134  132  137 1   
   135  133  134 1   
   136  133  136 1   
   137  133  138 1   
   138  134  135 2   
   139  134  142 1   
   140  136  139 1   
   141  136  140 1   
   142  136  141 1   
   143  142  143 1   
   144  142  147 1   
   145  143  144 1   
   146  143  146 1   
   147  143  148 1   
   148  144  145 2   
   149  144  152 1   
   150  146  149 1   
   151  146  150 1   
   152  146  151 1   
   153  152  153 1   
   154  152  161 1   
   155  153  154 1   
   156  153  156 1   
   157  153  162 1   
   158  154  155 2   
   159  154  167 1   
   160  156  157 1   
   161  156  163 1   
   162  156  164 1   
   163  157  158 1   
   164  157  165 1   
   165  157  166 1   
   166  158  159 1   
   167  158  160 1   
   168  167  168 1   
   169  167  172 1   
   170  168  169 1   
   171  168  170 1   
   172  168  171 1   
   173  174  175 1   
   174  174  176 1   
   175  177  178 1   
   176  177  179 1   
   177  180  181 1   
   178  180  182 1   
   179  183  184 1   
   180  183  185 1   
   181  186  187 1   
   182  186  188 1   
   183  189  190 1   
   184  189  191 1   
@<TRIPOS>SUBSTRUCTURE
     1 MOL         1 TEMP              0 ****  ****    0 ROOT
