@<TRIPOS>MOLECULE
MOL
  192   187     1     0     0
SMALL
resp


@<TRIPOS>ATOM
      1 C1          9.2000    1.0780    1.1240 c3        1 MOL     -0.604603
      2 C2          8.0420    0.5500    0.2780 c         1 MOL      0.879326
      3 O1          6.9190    0.4710    0.7750 o         1 MOL     -0.691592
      4 H1          8.8050    1.6060    1.9920 hc        1 MOL      0.149342
      5 H2          9.8160    0.2430    1.4580 hc        1 MOL      0.149342
      6 H3          9.8050    1.7620    0.5280 hc        1 MOL      0.149342
      7 N1          8.3130    0.1760   -1.0020 n         1 MOL     -0.785809
      8 C3          7.2190   -0.2810   -1.8630 c3        1 MOL      0.391904
      9 C4          6.9180   -1.7760   -1.6800 c         1 MOL      0.490256
     10 O2          6.8300   -2.4950   -2.6930 o         1 MOL     -0.502552
     11 C5          7.4510    0.1480   -3.3560 c3        1 MOL     -0.170200
     12 C6          8.0790    1.5600   -3.5050 c         1 MOL      0.750199
     13 O3          9.3150    1.7200   -3.4400 o         1 MOL     -0.659626
     14 O4          7.3010    2.5500   -3.6300 o         1 MOL     -0.659626
     15 H4          9.2060    0.4860   -1.3490 hn        1 MOL      0.331619
     16 H5          6.3200    0.2640   -1.5640 h1        1 MOL      0.008636
     17 H6          6.4800    0.1530   -3.8500 hc        1 MOL      0.022186
     18 H7          8.1160   -0.5130   -3.9150 hc        1 MOL      0.022186
     19 N2          6.6530   -2.1820   -0.4530 n         1 MOL     -0.553468
     20 C7          6.2300   -3.5500   -0.0530 c3        1 MOL      0.146006
     21 C8          4.6880   -3.9170   -0.3400 c         1 MOL      0.552035
     22 O5          4.5160   -5.0110   -0.8570 o         1 MOL     -0.566856
     23 C9          6.6330   -3.9450    1.3580 c3        1 MOL     -0.191163
     24 C10         8.1380   -3.9310    1.5810 c3        1 MOL      0.147612
     25 C11         8.6080   -4.4450    2.9430 c3        1 MOL     -0.123752
     26 C12        10.1710   -4.3850    3.0020 c3        1 MOL      0.042588
     27 N3         10.6660   -4.8740    4.3280 n4        1 MOL     -0.107178
     28 H8          6.8260   -1.5800    0.3430 hn        1 MOL      0.321774
     29 H9          6.7660   -4.1400   -0.7860 h1        1 MOL      0.059480
     30 H10         6.3360   -4.9810    1.5170 hc        1 MOL      0.042893
     31 H11         6.0620   -3.3700    2.0920 hc        1 MOL      0.042893
     32 H12         8.5010   -2.9070    1.4970 hc        1 MOL     -0.005355
     33 H13         8.6140   -4.5640    0.8320 hc        1 MOL     -0.005355
     34 H14         8.3750   -5.5080    2.9750 hc        1 MOL      0.056752
     35 H15         8.2160   -3.8720    3.7850 hc        1 MOL      0.056752
     36 H16        10.4680   -3.3500    2.8080 hx        1 MOL      0.065146
     37 H17        10.6080   -5.0540    2.2600 hx        1 MOL      0.065146
     38 H18        10.6100   -4.1660    5.0420 hn        1 MOL      0.195691
     39 H19        10.0200   -5.5000    4.7900 hn        1 MOL      0.195691
     40 H20        11.5850   -5.2810    4.2270 hn        1 MOL      0.195691
     41 N4          3.6890   -3.1050   -0.0070 n         1 MOL     -0.280749
     42 C13         3.7070   -1.8960    0.8310 c3        1 MOL     -0.072848
     43 C14         3.8550   -0.6080    0.0080 c         1 MOL      0.102831
     44 O6          3.7820   -0.6770   -1.2430 o         1 MOL     -0.334579
     45 C15         2.4260   -1.8950    1.7380 c3        1 MOL     -0.249802
     46 C16         1.1490   -2.1750    1.0010 c         1 MOL      0.806160
     47 O7          0.9300   -1.6540   -0.1150 o         1 MOL     -0.661426
     48 O8          0.4110   -2.9560    1.6190 o         1 MOL     -0.661426
     49 H21         2.8140   -3.6000   -0.0600 hn        1 MOL      0.259778
     50 H22         4.5380   -1.9850    1.5300 h1        1 MOL      0.111488
     51 H23         2.2950   -0.9250    2.2090 hc        1 MOL      0.058542
     52 H24         2.4790   -2.7020    2.4590 hc        1 MOL      0.058542
     53 N5          4.0340    0.5120    0.7260 n         1 MOL     -0.052493
     54 C17         4.2300    1.8460    0.0570 c3        1 MOL     -0.380105
     55 C18         2.9270    2.2350   -0.6870 c         1 MOL      0.689457
     56 O9          1.8660    1.5990   -0.5380 o         1 MOL     -0.642941
     57 H25         4.0730    0.4400    1.7270 hn        1 MOL      0.232424
     58 H26         4.9970    1.8960   -0.7020 h1        1 MOL      0.183763
     59 H27         4.4220    2.5560    0.8610 h1        1 MOL      0.183763
     60 N6          3.0270    3.4250   -1.3860 n         1 MOL     -0.496965
     61 C19         1.8650    4.1980   -1.9860 c3        1 MOL      0.475871
     62 C20         2.2490    5.6790   -1.8810 c         1 MOL      0.341497
     63 O10         3.3850    6.1240   -1.7420 o         1 MOL     -0.490374
     64 C21         1.6650    3.7360   -3.4790 c3        1 MOL     -0.317330
     65 C22         1.1860    2.2820   -3.6700 c         1 MOL      0.608710
     66 O11         0.1500    1.8260   -3.1510 o         1 MOL     -0.628854
     67 O12         1.9460    1.5530   -4.4130 o         1 MOL     -0.628854
     68 H28         3.8230    4.0290   -1.3120 hn        1 MOL      0.266216
     69 H29         0.9740    3.9820   -1.4000 h1        1 MOL     -0.104491
     70 H30         2.5820    3.8940   -4.0460 hc        1 MOL      0.090318
     71 H31         0.8290    4.2740   -3.9310 hc        1 MOL      0.090318
     72 N7          1.3100    6.6350   -2.0320 n         1 MOL     -0.369151
     73 C23        -0.1410    6.4110   -2.1390 c3        1 MOL     -0.253317
     74 C24        -0.6780    6.0610   -0.7380 c         1 MOL      0.620014
     75 O13        -0.2300    6.4630    0.3440 o         1 MOL     -0.518873
     76 H32         1.6410    7.5650   -1.8360 hn        1 MOL      0.318952
     77 H33        -0.4410    5.6370   -2.8480 h1        1 MOL      0.118701
     78 H34        -0.4940    7.3710   -2.5210 h1        1 MOL      0.118701
     79 N8         -1.6540    5.2300   -0.7930 n         1 MOL     -0.558690
     80 C25        -2.2920    4.6060    0.3570 c3        1 MOL     -0.010433
     81 C26        -1.4070    3.4940    0.9400 c         1 MOL      1.003729
     82 O14        -0.8720    2.7280    0.1080 o         1 MOL     -0.831175
     83 C27        -3.7010    4.1540   -0.1260 c3        1 MOL      0.151996
     84 C28        -4.6330    3.5590    0.9800 c3        1 MOL     -0.256125
     85 O15        -3.6010    3.0590   -1.0430 oh        1 MOL     -0.565343
     86 H35        -1.8340    4.8700   -1.7170 hn        1 MOL      0.298447
     87 H36        -2.4080    5.3520    1.1460 h1        1 MOL      0.051880
     88 H37        -4.1730    4.9860   -0.6470 h1        1 MOL      0.072005
     89 H38        -3.1270    3.3100   -1.8340 ho        1 MOL      0.387138
     90 H39        -5.5700    3.3130    0.4810 hc        1 MOL      0.073977
     91 H40        -4.1310    2.7920    1.5680 hc        1 MOL      0.073977
     92 H41        -4.9470    4.3710    1.6470 hc        1 MOL      0.073977
     93 N9         -1.3050    3.3790    2.2600 n         1 MOL     -0.417170
     94 C29        -0.4760    2.4460    2.9710 c3        1 MOL     -0.082525
     95 C30        -0.8330    1.0280    2.5460 c         1 MOL      0.837495
     96 O16        -0.3960    0.4910    1.5290 o         1 MOL     -0.711536
     97 C31         1.0320    2.9100    2.8400 c3        1 MOL     -0.030121
     98 C32         1.2950    4.4040    3.0620 c3        1 MOL     -0.114423
     99 C33         1.9400    1.9810    3.6320 c3        1 MOL     -0.403110
    100 C34         2.4310    4.8870    2.1660 c3        1 MOL     -0.115146
    101 H42        -1.8040    4.0930    2.7700 hn        1 MOL      0.236656
    102 H43        -0.6940    2.4900    4.0410 h1        1 MOL      0.069909
    103 H44         1.2780    2.7910    1.7840 hc        1 MOL      0.203298
    104 H45         1.5450    4.6260    4.1100 hc        1 MOL      0.038211
    105 H46         0.4430    4.9760    2.6900 hc        1 MOL      0.038211
    106 H47         1.6140    1.8560    4.6550 hc        1 MOL      0.114509
    107 H48         1.9020    0.9910    3.1870 hc        1 MOL      0.114509
    108 H49         3.0060    2.2100    3.5580 hc        1 MOL      0.114509
    109 H50         3.2740    4.2080    2.2290 hc        1 MOL      0.033984
    110 H51         2.0970    5.0120    1.1370 hc        1 MOL      0.033984
    111 H52         2.7550    5.8430    2.5810 hc        1 MOL      0.033984
    112 N10        -1.6160    0.4010    3.3910 n         1 MOL     -0.481863
    113 C35        -2.2480   -0.9250    3.2380 c3        1 MOL     -0.136344
    114 C36        -3.8130   -0.8740    3.2110 c         1 MOL      0.648987
    115 O17        -4.4670   -1.8920    3.2860 o         1 MOL     -0.581882
    116 C37        -1.5590   -1.9150    4.2590 c3        1 MOL      0.514786
    117 C38        -1.6020   -1.3630    5.6820 c3        1 MOL     -0.280060
    118 O18        -0.2400   -2.1170    3.9980 oh        1 MOL     -0.640135
    119 H53        -1.8310    0.8900    4.2520 hn        1 MOL      0.248243
    120 H54        -1.9840   -1.4250    2.3080 h1        1 MOL      0.104456
    121 H55        -2.1530   -2.8250    4.2030 h1        1 MOL     -0.038607
    122 H56        -0.1100   -2.6120    3.1910 ho        1 MOL      0.380094
    123 H57        -2.6060   -0.9620    5.8010 hc        1 MOL      0.054503
    124 H58        -1.5110   -2.2140    6.3580 hc        1 MOL      0.054503
    125 H59        -0.8600   -0.6030    5.9190 hc        1 MOL      0.054503
    126 N11        -4.4730    0.3370    3.1650 n         1 MOL     -0.249096
    127 C39        -5.9210    0.3410    3.1610 c3        1 MOL     -0.113407
    128 C40        -6.4660   -0.0490    1.7740 c         1 MOL      0.573756
    129 O19        -6.5800    0.7990    0.8960 o         1 MOL     -0.483846
    130 C41        -6.5590    1.7080    3.6540 c3        1 MOL      0.507441
    131 C42        -8.0510    1.6030    3.9940 c3        1 MOL     -0.599272
    132 O20        -5.9000    2.3080    4.7580 oh        1 MOL     -0.650426
    133 H60        -3.9250    1.1690    3.0390 hn        1 MOL      0.153965
    134 H61        -6.2140   -0.3960    3.9010 h1        1 MOL      0.072909
    135 H62        -6.5800    2.3710    2.7870 h1        1 MOL     -0.054530
    136 H63        -6.4210    3.0710    5.0010 ho        1 MOL      0.399706
    137 H64        -8.6730    1.2840    3.1600 hc        1 MOL      0.149543
    138 H65        -8.1370    0.9600    4.8680 hc        1 MOL      0.149543
    139 H66        -8.4020    2.5710    4.3400 hc        1 MOL      0.149543
    140 N12        -6.7680   -1.4140    1.5950 n         1 MOL     -0.631364
    141 C43        -6.9830   -2.1750    0.3420 c3        1 MOL      0.104494
    142 C44        -5.7630   -2.0300   -0.5630 c         1 MOL      0.673924
    143 O21        -5.4400   -0.9130   -0.9840 o         1 MOL     -0.555670
    144 C45        -8.3150   -1.6740   -0.2660 c3        1 MOL     -0.345975
    145 C46        -8.6700   -2.2920   -1.5970 c3        1 MOL      0.066836
    146 C47       -10.0450   -1.9490   -2.1600 c3        1 MOL     -0.014446
    147 C48        -9.9840   -0.5180   -2.7670 c3        1 MOL     -0.040817
    148 N13       -11.3430    0.0070   -3.0060 n4        1 MOL     -0.134008
    149 H67        -6.6430   -2.0510    2.3690 hn        1 MOL      0.352563
    150 H68        -7.0920   -3.2350    0.5630 h1        1 MOL      0.056363
    151 H69        -8.0760   -0.6360   -0.5000 hc        1 MOL      0.134613
    152 H70        -9.1380   -1.6600    0.4340 hc        1 MOL      0.134613
    153 H71        -8.6290   -3.3800   -1.4800 hc        1 MOL      0.013626
    154 H72        -7.9150   -2.1650   -2.3700 hc        1 MOL      0.013626
    155 H73       -10.7390   -2.1100   -1.3230 hc        1 MOL      0.033894
    156 H74       -10.3120   -2.6240   -2.9760 hc        1 MOL      0.033894
    157 H75        -9.4300   -0.4900   -3.6970 hx        1 MOL      0.110234
    158 H76        -9.4640    0.1580   -2.0800 hx        1 MOL      0.110234
    159 H77       -11.6650   -0.0900   -3.9650 hn        1 MOL      0.212733
    160 H78       -12.0580   -0.4590   -2.4720 hn        1 MOL      0.212733
    161 H79       -11.4670    1.0130   -3.0220 hn        1 MOL      0.212733
    162 N14        -5.0470   -3.1920   -0.8430 n         1 MOL     -0.570016
    163 C49        -3.8950   -3.0940   -1.7520 c3        1 MOL      0.210350
    164 C50        -2.5570   -2.8750   -1.0540 c         1 MOL      0.509931
    165 O22        -1.8550   -1.9780   -1.5130 o         1 MOL     -0.687717
    166 C51        -3.8250   -4.3290   -2.6190 c3        1 MOL     -0.004031
    167 C52        -5.1220   -4.4700   -3.4520 c3        1 MOL     -0.258946
    168 C53        -4.9680   -5.7640   -4.1910 c         1 MOL      0.743984
    169 O23        -4.3870   -5.7290   -5.2480 o         1 MOL     -0.665061
    170 O24        -5.3860   -6.8350   -3.7300 o         1 MOL     -0.665061
    171 H80        -5.5500   -4.0430   -0.6470 hn        1 MOL      0.316066
    172 H81        -4.1210   -2.2320   -2.3800 h1        1 MOL      0.035197
    173 H82        -3.7750   -5.2000   -1.9650 hc        1 MOL      0.052512
    174 H83        -2.9900   -4.4020   -3.3170 hc        1 MOL      0.052512
    175 H84        -5.3520   -3.5570   -4.0120 hc        1 MOL      0.021168
    176 H85        -5.9990   -4.5820   -2.8110 hc        1 MOL      0.021168
    177 N15        -2.0950   -3.5130    0.0110 n         1 MOL     -0.270707
    178 C54        -2.5760   -4.7620    0.5760 c3        1 MOL     -0.052530
    179 H86        -2.8240   -5.4530   -0.2300 h1        1 MOL      0.042842
    180 H87        -1.7990   -5.2000    1.2040 h1        1 MOL      0.042842
    181 H88        -3.4640   -4.5710    1.1770 h1        1 MOL      0.042842
    182 H89        -1.2260   -3.1610    0.3750 hn        1 MOL      0.241718
    183 Ca1        -0.4150    0.3340   -1.1630 Ca        1 MOL      1.871475
    184 O25         0.1430   -1.2450   -3.3310 oh        1 MOL     -0.916823
    185 H90         0.3950   -1.0650   -4.2390 ho        1 MOL      0.433780
    186 H91         0.0300   -2.2000   -3.3030 ho        1 MOL      0.433780
    187 O26        -3.2980    0.5820    0.3460 oh        1 MOL     -0.916823
    188 H92        -4.1430    0.2060    0.0820 ho        1 MOL      0.433780
    189 H93        -3.2590    1.4250   -0.1050 ho        1 MOL      0.433780
    190 O27        -2.4350    0.6880   -2.8360 oh        1 MOL     -0.916823
    191 H94        -3.1340    0.0430   -2.7760 ho        1 MOL      0.433780
    192 H95        -2.2310    0.7570   -3.7690 ho        1 MOL      0.433780
@<TRIPOS>BOND
     1    1    2 1   
     2    1    4 1   
     3    1    5 1   
     4    1    6 1   
     5    2    3 2   
     6    2    7 1   
     7    7    8 1   
     8    7   15 1   
     9    8    9 1   
    10    8   11 1   
    11    8   16 1   
    12    9   10 2   
    13    9   19 1   
    14   11   12 1   
    15   11   17 1   
    16   11   18 1   
    17   12   13 1   
    18   12   14 1   
    19   19   20 1   
    20   19   28 1   
    21   20   21 1   
    22   20   23 1   
    23   20   29 1   
    24   21   22 2   
    25   21   41 1   
    26   23   24 1   
    27   23   30 1   
    28   23   31 1   
    29   24   25 1   
    30   24   32 1   
    31   24   33 1   
    32   25   26 1   
    33   25   34 1   
    34   25   35 1   
    35   26   27 1   
    36   26   36 1   
    37   26   37 1   
    38   27   38 1   
    39   27   39 1   
    40   27   40 1   
    41   41   42 1   
    42   41   49 1   
    43   42   43 1   
    44   42   45 1   
    45   42   50 1   
    46   43   44 2   
    47   43   53 1   
    48   45   46 1   
    49   45   51 1   
    50   45   52 1   
    51   46   47 1   
    52   46   48 1   
    53   53   54 1   
    54   53   57 1   
    55   54   55 1   
    56   54   58 1   
    57   54   59 1   
    58   55   56 2   
    59   55   60 1   
    60   60   61 1   
    61   60   68 1   
    62   61   62 1   
    63   61   64 1   
    64   61   69 1   
    65   62   63 2   
    66   62   72 1   
    67   64   65 1   
    68   64   70 1   
    69   64   71 1   
    70   65   66 1   
    71   65   67 1   
    72   72   73 1   
    73   72   76 1   
    74   73   74 1   
    75   73   77 1   
    76   73   78 1   
    77   74   75 2   
    78   74   79 1   
    79   79   80 1   
    80   79   86 1   
    81   80   81 1   
    82   80   83 1   
    83   80   87 1   
    84   81   82 2   
    85   81   93 1   
    86   83   84 1   
    87   83   85 1   
    88   83   88 1   
    89   84   90 1   
    90   84   91 1   
    91   84   92 1   
    92   85   89 1   
    93   93   94 1   
    94   93  101 1   
    95   94   95 1   
    96   94   97 1   
    97   94  102 1   
    98   95   96 2   
    99   95  112 1   
   100   97   98 1   
   101   97   99 1   
   102   97  103 1   
   103   98  100 1   
   104   98  104 1   
   105   98  105 1   
   106   99  106 1   
   107   99  107 1   
   108   99  108 1   
   109  100  109 1   
   110  100  110 1   
   111  100  111 1   
   112  112  113 1   
   113  112  119 1   
   114  113  114 1   
   115  113  116 1   
   116  113  120 1   
   117  114  115 2   
   118  114  126 1   
   119  116  117 1   
   120  116  118 1   
   121  116  121 1   
   122  117  123 1   
   123  117  124 1   
   124  117  125 1   
   125  118  122 1   
   126  126  127 1   
   127  126  133 1   
   128  127  128 1   
   129  127  130 1   
   130  127  134 1   
   131  128  129 2   
   132  128  140 1   
   133  130  131 1   
   134  130  132 1   
   135  130  135 1   
   136  131  137 1   
   137  131  138 1   
   138  131  139 1   
   139  132  136 1   
   140  140  141 1   
   141  140  149 1   
   142  141  142 1   
   143  141  144 1   
   144  141  150 1   
   145  142  143 2   
   146  142  162 1   
   147  144  145 1   
   148  144  151 1   
   149  144  152 1   
   150  145  146 1   
   151  145  153 1   
   152  145  154 1   
   153  146  147 1   
   154  146  155 1   
   155  146  156 1   
   156  147  148 1   
   157  147  157 1   
   158  147  158 1   
   159  148  159 1   
   160  148  160 1   
   161  148  161 1   
   162  162  163 1   
   163  162  171 1   
   164  163  164 1   
   165  163  166 1   
   166  163  172 1   
   167  164  165 2   
   168  164  177 1   
   169  166  167 1   
   170  166  173 1   
   171  166  174 1   
   172  167  168 1   
   173  167  175 1   
   174  167  176 1   
   175  168  169 1   
   176  168  170 1   
   177  177  178 1   
   178  177  182 1   
   179  178  179 1   
   180  178  180 1   
   181  178  181 1   
   182  184  185 1   
   183  184  186 1   
   184  187  188 1   
   185  187  189 1   
   186  190  191 1   
   187  190  192 1   
@<TRIPOS>SUBSTRUCTURE
     1 MOL         1 TEMP              0 ****  ****    0 ROOT
