@<TRIPOS>MOLECULE
MOL
  184   179     1     0     0
SMALL
resp


@<TRIPOS>ATOM
      1 C1         -1.4460   -5.5260   -2.7660 c3        1 MOL     -0.511905
      2 C2         -2.7870   -5.6980   -2.0490 c         1 MOL      0.768243
      3 O1         -2.8660   -6.5250   -1.0980 o         1 MOL     -0.599373
      4 H1         -0.7720   -6.3310   -2.4740 hc        1 MOL      0.119824
      5 H2         -1.6040   -5.5580   -3.8440 hc        1 MOL      0.119824
      6 H3         -1.0070   -4.5670   -2.4910 hc        1 MOL      0.119824
      7 N1         -3.8280   -5.0570   -2.5540 n         1 MOL     -0.578146
      8 C3         -5.1360   -5.2180   -1.9970 c3        1 MOL      0.033128
      9 C4         -5.4760   -4.0550   -1.0490 c         1 MOL      0.519206
     10 O2         -5.1280   -2.8590   -1.3020 o         1 MOL     -0.588227
     11 C5         -6.2780   -5.2570   -3.0230 c3        1 MOL      0.010321
     12 C6         -7.6330   -5.3940   -2.4060 c         1 MOL      0.668457
     13 O3         -7.8970   -6.3640   -1.6360 o         1 MOL     -0.727798
     14 O4         -8.4890   -4.5330   -2.7570 o         1 MOL     -0.727798
     15 H4         -3.7310   -4.5710   -3.4370 hn        1 MOL      0.312598
     16 H5         -5.1440   -6.1390   -1.4030 h1        1 MOL      0.057170
     17 H6         -6.1780   -6.0470   -3.7710 hc        1 MOL     -0.024471
     18 H7         -6.2490   -4.3590   -3.6510 hc        1 MOL     -0.024471
     19 N2         -6.1190   -4.3580    0.0780 n         1 MOL     -0.387814
     20 C7         -6.6540   -3.3230    1.0520 c3        1 MOL      0.323114
     21 C8         -5.8940   -3.3920    2.3440 c         1 MOL      0.467597
     22 O5         -5.2570   -4.3940    2.6000 o         1 MOL     -0.562578
     23 C9         -8.1000   -3.8160    1.1930 c3        1 MOL     -0.347378
     24 H8         -6.2500   -5.3360    0.2950 hn        1 MOL      0.261056
     25 H9         -6.7580   -2.3740    0.5260 h1        1 MOL      0.018576
     26 H10        -8.6790   -3.2870    1.9500 hc        1 MOL      0.081498
     27 H11        -8.6650   -3.7040    0.2700 hc        1 MOL      0.081498
     28 H12        -8.1410   -4.8980    1.3650 hc        1 MOL      0.081498
     29 N3         -5.8160   -2.3170    3.1130 n         1 MOL     -0.413362
     30 C10        -6.7930   -1.2470    3.2120 c3        1 MOL      0.092361
     31 C11        -6.3900   -0.0610    2.3440 c         1 MOL      0.437233
     32 O6         -5.2300    0.1860    2.1630 o         1 MOL     -0.468807
     33 C12        -7.0530   -0.8620    4.6890 c3        1 MOL     -0.447841
     34 C13        -5.7990   -0.3630    5.4470 c         1 MOL      0.798788
     35 O7         -5.8480    0.8690    5.7330 o         1 MOL     -0.736781
     36 O8         -4.8130   -1.0320    5.7860 o         1 MOL     -0.736781
     37 H13        -5.1310   -2.2850    3.8510 hn        1 MOL      0.315117
     38 H14        -7.6840   -1.7270    2.8130 h1        1 MOL      0.052881
     39 H15        -7.3650   -1.7740    5.1960 hc        1 MOL      0.081960
     40 H16        -7.8820   -0.1550    4.6930 hc        1 MOL      0.081960
     41 N4         -7.3960    0.5630    1.7400 n         1 MOL     -0.335590
     42 C14        -7.2390    1.6000    0.7090 c3        1 MOL     -0.138269
     43 C15        -6.5340    1.0160   -0.5350 c         1 MOL      0.548331
     44 O9         -6.6410   -0.2000   -0.7730 o         1 MOL     -0.413196
     45 H17        -8.3220    0.3400    2.0720 hn        1 MOL      0.278723
     46 H18        -6.6600    2.4490    1.0830 h1        1 MOL      0.094437
     47 H19        -8.1990    1.9460    0.3270 h1        1 MOL      0.094437
     48 N5         -5.8060    1.7590   -1.4160 n         1 MOL     -0.576683
     49 C16        -5.6040    3.2780   -1.3920 c3        1 MOL      0.108651
     50 C17        -4.2490    3.5890   -1.9790 c         1 MOL      0.367906
     51 O10        -3.4770    2.6990   -2.3810 o         1 MOL     -0.378818
     52 C18        -6.7120    3.8180   -2.3440 c3        1 MOL     -0.154726
     53 C19        -8.1670    3.7530   -1.8420 c         1 MOL      0.519800
     54 N6         -8.6220    4.7430   -1.0680 n         1 MOL     -0.738235
     55 O11        -8.9230    2.7660   -1.8770 o         1 MOL     -0.474683
     56 H20        -5.2270    1.2240   -2.0450 hn        1 MOL      0.348567
     57 H21        -5.7610    3.7480   -0.4250 h1        1 MOL      0.056058
     58 H22        -6.6200    3.3050   -3.2950 hc        1 MOL      0.073378
     59 H23        -6.5250    4.8540   -2.6360 hc        1 MOL      0.073378
     60 H24        -8.2320    5.6750   -1.0380 hn        1 MOL      0.348110
     61 H25        -9.5760    4.6630   -0.7470 hn        1 MOL      0.348110
     62 N7         -4.0140    4.8720   -2.3800 n         1 MOL     -0.348936
     63 C20        -2.8690    5.2320   -3.2130 c3        1 MOL     -0.239689
     64 C21        -1.4960    4.9940   -2.6450 c         1 MOL      0.407379
     65 O12        -0.7570    4.1970   -3.2440 o         1 MOL     -0.487883
     66 H26        -4.6350    5.6220   -2.0970 hn        1 MOL      0.273169
     67 H27        -2.9760    6.2890   -3.4710 h1        1 MOL      0.150647
     68 H28        -2.9780    4.6470   -4.1260 h1        1 MOL      0.150647
     69 N8         -1.1110    5.5520   -1.5200 n         1 MOL     -0.200834
     70 C22         0.3040    5.6410   -1.0750 c3        1 MOL     -0.342034
     71 C23         1.0090    4.3150   -1.0240 c         1 MOL      0.824081
     72 O13         0.5940    3.3010   -0.3930 o         1 MOL     -0.774852
     73 C24         0.5090    6.4000    0.2490 c3        1 MOL      0.335292
     74 C25         0.3240    7.9160    0.0600 c3        1 MOL     -0.391597
     75 O14        -0.4130    6.0670    1.2760 oh        1 MOL     -0.622025
     76 H29        -1.7770    6.0830   -0.9810 hn        1 MOL      0.249327
     77 H30         0.8200    6.2800   -1.7900 h1        1 MOL      0.157214
     78 H31         1.5200    6.1730    0.5900 h1        1 MOL      0.067574
     79 H32        -0.0610    6.1220    2.1650 ho        1 MOL      0.397752
     80 H33        -0.6500    8.1640   -0.3770 hc        1 MOL      0.101376
     81 H34         0.4650    8.2900    1.0760 hc        1 MOL      0.101376
     82 H35         1.0590    8.3320   -0.6340 hc        1 MOL      0.101376
     83 N9          2.1550    4.2870   -1.6640 n         1 MOL     -0.411923
     84 C26         3.2150    3.3030   -1.6000 c3        1 MOL     -0.051184
     85 C27         4.0320    3.6020   -0.3110 c         1 MOL      0.291240
     86 O15         4.5580    4.7390   -0.2930 o         1 MOL     -0.560865
     87 C28         4.0930    3.2010   -2.8770 c3        1 MOL      0.298831
     88 C29         5.2570    2.2350   -2.6770 c3        1 MOL      0.187883
     89 C30         3.2280    3.0270   -4.1120 c3        1 MOL     -0.391883
     90 C31         6.2600    2.2690   -3.8900 c3        1 MOL     -0.250974
     91 H36         2.3080    5.1220   -2.2130 hn        1 MOL      0.233323
     92 H37         2.7030    2.3490   -1.4310 h1        1 MOL      0.170758
     93 H38         4.6710    4.1290   -2.9220 hc        1 MOL     -0.050505
     94 H39         4.8430    1.2300   -2.6130 hc        1 MOL     -0.038838
     95 H40         5.8300    2.3730   -1.7630 hc        1 MOL     -0.038838
     96 H41         3.7930    3.1660   -5.0320 hc        1 MOL      0.094241
     97 H42         2.8640    2.0030   -4.2190 hc        1 MOL      0.094241
     98 H43         2.3980    3.7360   -4.1260 hc        1 MOL      0.094241
     99 H44         5.7520    1.9660   -4.8110 hc        1 MOL      0.042454
    100 H45         6.6440    3.2800   -3.9630 hc        1 MOL      0.042454
    101 H46         7.0770    1.5580   -3.7240 hc        1 MOL      0.042454
    102 N10         4.1910    2.6500    0.5530 n         1 MOL     -0.101319
    103 C32         5.0850    2.7010    1.7020 c3        1 MOL      0.187465
    104 C33         6.0170    1.4310    1.8090 c         1 MOL      0.390846
    105 O16         6.8550    1.4160    2.6530 o         1 MOL     -0.521930
    106 C34         4.3120    2.9710    3.0380 c3        1 MOL     -0.210275
    107 C35         2.9720    2.2440    3.1300 c         1 MOL      0.806958
    108 O17         2.8750    1.1950    3.8030 o         1 MOL     -0.751174
    109 O18         1.9780    2.7640    2.6420 o         1 MOL     -0.751174
    110 H47         3.6410    1.8200    0.4290 hn        1 MOL      0.129163
    111 H48         5.7500    3.5550    1.6400 h1        1 MOL      0.065459
    112 H49         4.2430    4.0510    2.9070 hc        1 MOL      0.042430
    113 H50         4.9820    2.7580    3.8690 hc        1 MOL      0.042430
    114 N11         5.9070    0.3430    0.9780 n         1 MOL     -0.571615
    115 C36         6.8410   -0.8010    1.1390 c3        1 MOL      0.551339
    116 C37         6.2260   -2.0650    0.6260 c         1 MOL      0.158955
    117 O19         6.6300   -2.5980   -0.3920 o         1 MOL     -0.437111
    118 C38         8.2540   -0.4480    0.6130 c3        1 MOL     -0.439748
    119 C39         9.4430   -1.2740    1.1230 ca        1 MOL      0.218610
    120 C40         9.9870   -2.1920    0.1840 ca        1 MOL     -0.244572
    121 C41        10.0160   -1.1270    2.4180 ca        1 MOL     -0.244572
    122 C42        11.0190   -3.0710    0.6240 ca        1 MOL     -0.055949
    123 C43        11.0200   -2.0300    2.8240 ca        1 MOL     -0.055949
    124 C44        11.5870   -2.9370    1.9180 ca        1 MOL     -0.191407
    125 H51         5.1610    0.2250    0.3020 hn        1 MOL      0.281753
    126 H52         7.1250   -0.9190    2.1870 h1        1 MOL     -0.031687
    127 H53         8.4310    0.5970    0.8950 hc        1 MOL      0.128351
    128 H54         8.1420   -0.4620   -0.4740 hc        1 MOL      0.128351
    129 H55         9.6270   -2.2290   -0.8310 ha        1 MOL      0.151733
    130 H56         9.5320   -0.3680    3.0130 ha        1 MOL      0.151733
    131 H57        11.4110   -3.8080   -0.0750 ha        1 MOL      0.092710
    132 H58        11.2930   -1.9660    3.8630 ha        1 MOL      0.092710
    133 H59        12.4560   -3.5090    2.2160 ha        1 MOL      0.110957
    134 N12         5.2000   -2.6050    1.3220 n         1 MOL     -0.019485
    135 C45         4.4930   -3.8770    0.9480 c3        1 MOL      0.053457
    136 C46         4.1740   -4.0340   -0.5450 c         1 MOL      0.239099
    137 O20         4.2290   -5.1530   -0.9720 o         1 MOL     -0.454044
    138 C47         3.2620   -3.8650    1.9470 c3        1 MOL     -0.155948
    139 C48         3.8470   -3.1660    3.1800 c3        1 MOL     -0.053557
    140 C49         4.7330   -2.0640    2.6580 c3        1 MOL     -0.061457
    141 H60         5.1340   -4.6800    1.3120 h1        1 MOL      0.056457
    142 H61         2.4700   -3.2630    1.5140 hc        1 MOL      0.093355
    143 H62         2.9840   -4.8980    2.1860 hc        1 MOL      0.093355
    144 H63         3.0040   -2.8180    3.7790 hc        1 MOL      0.031870
    145 H64         4.4950   -3.8090    3.7700 hc        1 MOL      0.031870
    146 H65         4.1590   -1.1410    2.6440 h1        1 MOL      0.085707
    147 H66         5.5970   -2.0800    3.3240 h1        1 MOL      0.085707
    148 N13         3.7640   -2.9210   -1.1830 n         1 MOL     -0.082826
    149 C50         3.4250   -2.9500   -2.6260 c3        1 MOL     -0.343239
    150 C51         4.6310   -3.3400   -3.5330 c         1 MOL      0.505216
    151 O21         4.4190   -4.0300   -4.5440 o         1 MOL     -0.553980
    152 C52         2.9640   -1.6100   -3.1000 c3        1 MOL      0.184909
    153 C53         1.9970   -0.8440   -2.1640 c3        1 MOL     -0.249162
    154 C54         2.5940   -0.1570   -0.9620 c         1 MOL      0.550693
    155 O22         1.8850    0.4970   -0.2470 o         1 MOL     -0.638999
    156 O23         3.8240   -0.2500   -0.6840 o         1 MOL     -0.638999
    157 H67         3.8220   -2.0270   -0.7230 hn        1 MOL      0.248235
    158 H68         2.5830   -3.6340   -2.7480 h1        1 MOL      0.175963
    159 H69         2.4630   -1.6290   -4.0680 hc        1 MOL     -0.018909
    160 H70         3.8120   -0.9350   -3.2360 hc        1 MOL     -0.018909
    161 H71         1.3190   -1.6310   -1.8480 hc        1 MOL      0.083883
    162 H72         1.4300   -0.0710   -2.6850 hc        1 MOL      0.083883
    163 N14         5.8540   -2.9830   -3.1420 n         1 MOL     -0.125706
    164 C55         7.0350   -3.2850   -3.9550 c3        1 MOL     -0.276734
    165 H73         7.6290   -4.0520   -3.4610 h1        1 MOL      0.101378
    166 H74         6.7210   -3.6450   -4.9350 h1        1 MOL      0.101378
    167 H75         7.6340   -2.3820   -4.0740 h1        1 MOL      0.101378
    168 H76         6.0370   -2.5430   -2.2590 hn        1 MOL      0.181503
    169 Ca1         0.0690    1.3700    1.3020 Ca        1 MOL      1.742989
    170 O24        -0.7910    3.2830    3.1230 oh        1 MOL     -0.822217
    171 H77        -1.4280    3.8790    3.5310 ho        1 MOL      0.407093
    172 H78         0.0270    3.4520    3.5800 ho        1 MOL      0.407093
    173 O25        -2.0180    1.6820   -0.3050 oh        1 MOL     -0.822217
    174 H79        -2.0360    2.4930   -0.8090 ho        1 MOL      0.407093
    175 H80        -2.7210    1.1450   -0.6910 ho        1 MOL      0.407093
    176 O26         0.6350    0.0580    3.4610 oh        1 MOL     -0.822217
    177 H81         1.5420    0.2240    3.7330 ho        1 MOL      0.407093
    178 H82         0.1160    0.1760    4.2620 ho        1 MOL      0.407093
    179 O27        -1.1490   -0.9770    0.6450 oh        1 MOL     -0.822217
    180 O28        -2.5060    0.5360    2.9010 oh        1 MOL     -0.822217
    181 H83        -1.3280   -1.8030    1.0930 ho        1 MOL      0.407093
    182 H84        -3.1760    0.7900    2.2790 ho        1 MOL      0.407093
    183 H85        -1.9250   -0.8210    0.1120 ho        1 MOL      0.407093
    184 H86        -2.7230    1.0180    3.7000 ho        1 MOL      0.407093
@<TRIPOS>BOND
     1    1    2 1   
     2    1    4 1   
     3    1    5 1   
     4    1    6 1   
     5    2    3 2   
     6    2    7 1   
     7    7    8 1   
     8    7   15 1   
     9    8    9 1   
    10    8   11 1   
    11    8   16 1   
    12    9   10 2   
    13    9   19 1   
    14   11   12 1   
    15   11   17 1   
    16   11   18 1   
    17   12   13 1   
    18   12   14 1   
    19   19   20 1   
    20   19   24 1   
    21   20   21 1   
    22   20   23 1   
    23   20   25 1   
    24   21   22 2   
    25   21   29 1   
    26   23   26 1   
    27   23   27 1   
    28   23   28 1   
    29   29   30 1   
    30   29   37 1   
    31   30   31 1   
    32   30   33 1   
    33   30   38 1   
    34   31   32 2   
    35   31   41 1   
    36   33   34 1   
    37   33   39 1   
    38   33   40 1   
    39   34   35 1   
    40   34   36 1   
    41   41   42 1   
    42   41   45 1   
    43   42   43 1   
    44   42   46 1   
    45   42   47 1   
    46   43   44 2   
    47   43   48 1   
    48   48   49 1   
    49   48   56 1   
    50   49   50 1   
    51   49   52 1   
    52   49   57 1   
    53   50   51 2   
    54   50   62 1   
    55   52   53 1   
    56   52   58 1   
    57   52   59 1   
    58   53   54 1   
    59   53   55 2   
    60   54   60 1   
    61   54   61 1   
    62   62   63 1   
    63   62   66 1   
    64   63   64 1   
    65   63   67 1   
    66   63   68 1   
    67   64   65 2   
    68   64   69 1   
    69   69   70 1   
    70   69   76 1   
    71   70   71 1   
    72   70   73 1   
    73   70   77 1   
    74   71   72 2   
    75   71   83 1   
    76   73   74 1   
    77   73   75 1   
    78   73   78 1   
    79   74   80 1   
    80   74   81 1   
    81   74   82 1   
    82   75   79 1   
    83   83   84 1   
    84   83   91 1   
    85   84   85 1   
    86   84   87 1   
    87   84   92 1   
    88   85   86 2   
    89   85  102 1   
    90   87   88 1   
    91   87   89 1   
    92   87   93 1   
    93   88   90 1   
    94   88   94 1   
    95   88   95 1   
    96   89   96 1   
    97   89   97 1   
    98   89   98 1   
    99   90   99 1   
   100   90  100 1   
   101   90  101 1   
   102  102  103 1   
   103  102  110 1   
   104  103  104 1   
   105  103  106 1   
   106  103  111 1   
   107  104  105 2   
   108  104  114 1   
   109  106  107 1   
   110  106  112 1   
   111  106  113 1   
   112  107  108 1   
   113  107  109 1   
   114  114  115 1   
   115  114  125 1   
   116  115  116 1   
   117  115  118 1   
   118  115  126 1   
   119  116  117 2   
   120  116  134 1   
   121  118  119 1   
   122  118  127 1   
   123  118  128 1   
   124  119  120 ar  
   125  119  121 ar  
   126  120  122 ar  
   127  120  129 1   
   128  121  123 ar  
   129  121  130 1   
   130  122  124 ar  
   131  122  131 1   
   132  123  124 ar  
   133  123  132 1   
   134  124  133 1   
   135  134  135 1   
   136  134  140 1   
   137  135  136 1   
   138  135  138 1   
   139  135  141 1   
   140  136  137 2   
   141  136  148 1   
   142  138  139 1   
   143  138  142 1   
   144  138  143 1   
   145  139  140 1   
   146  139  144 1   
   147  139  145 1   
   148  140  146 1   
   149  140  147 1   
   150  148  149 1   
   151  148  157 1   
   152  149  150 1   
   153  149  152 1   
   154  149  158 1   
   155  150  151 2   
   156  150  163 1   
   157  152  153 1   
   158  152  159 1   
   159  152  160 1   
   160  153  154 1   
   161  153  161 1   
   162  153  162 1   
   163  154  155 1   
   164  154  156 1   
   165  163  164 1   
   166  163  168 1   
   167  164  165 1   
   168  164  166 1   
   169  164  167 1   
   170  170  171 1   
   171  170  172 1   
   172  173  174 1   
   173  173  175 1   
   174  176  177 1   
   175  176  178 1   
   176  179  181 1   
   177  179  183 1   
   178  180  182 1   
   179  180  184 1   
@<TRIPOS>SUBSTRUCTURE
     1 MOL         1 TEMP              0 ****  ****    0 ROOT
