@<TRIPOS>MOLECULE
MOL
  189   185     1     0     0
SMALL
resp


@<TRIPOS>ATOM
      1 C1        -10.7380    1.1300    5.3940 c3        1 MOL     -0.439257
      2 C2        -10.5540    0.7780    3.9140 c         1 MOL      0.613706
      3 O1        -11.1780   -0.1310    3.3740 o         1 MOL     -0.595519
      4 H1        -10.8440    0.2130    5.9750 hc        1 MOL      0.120796
      5 H2         -9.8680    1.6840    5.7480 hc        1 MOL      0.120796
      6 H3        -11.6320    1.7410    5.5140 hc        1 MOL      0.120796
      7 N1         -9.8020    1.5420    3.1400 n         1 MOL     -0.003710
      8 C3         -9.7380    1.4450    1.7160 c3        1 MOL     -0.639619
      9 C4         -8.4520    0.8970    1.0660 c         1 MOL      0.775587
     10 O2         -7.4320    0.7900    1.7250 o         1 MOL     -0.561626
     11 C5        -10.0860    2.8780    1.1850 c3        1 MOL      0.060681
     12 C6         -9.1690    4.0040    1.6820 c         1 MOL      0.638574
     13 O3         -8.2130    3.6720    2.4520 o         1 MOL     -0.680637
     14 O4         -9.3910    5.2230    1.4240 o         1 MOL     -0.680637
     15 H4         -9.2220    2.1870    3.6610 hn        1 MOL      0.076547
     16 H5        -10.5290    0.8240    1.3080 h1        1 MOL      0.211119
     17 H6        -11.1410    3.0940    1.4070 hc        1 MOL      0.037018
     18 H7        -10.0270    2.9010    0.1000 hc        1 MOL      0.037018
     19 N2         -8.6380    0.6970   -0.2340 n         1 MOL     -0.524781
     20 C7         -7.8830   -0.0840   -1.1140 c3        1 MOL      0.297476
     21 C8         -6.8540    0.6910   -1.9370 c         1 MOL      0.353037
     22 O5         -6.7760    0.5460   -3.1610 o         1 MOL     -0.509245
     23 C9         -8.8080   -0.9960   -1.9640 c3        1 MOL     -0.180492
     24 C10        -9.5610   -2.0680   -1.0790 c3        1 MOL     -0.219090
     25 C11       -10.3390   -3.0100   -2.0110 c3        1 MOL     -0.013588
     26 C12       -11.6160   -2.3670   -2.7420 c3        1 MOL     -0.050557
     27 N3        -12.4900   -3.4350   -3.2770 n4        1 MOL     -0.119615
     28 H8         -9.4860    1.0940   -0.6150 hn        1 MOL      0.316792
     29 H9         -7.2500   -0.7200   -0.4900 h1        1 MOL      0.044495
     30 H10        -8.2270   -1.5990   -2.6740 hc        1 MOL      0.090259
     31 H11        -9.5750   -0.4020   -2.4500 hc        1 MOL      0.090259
     32 H12       -10.1210   -1.6560   -0.2380 hc        1 MOL      0.085387
     33 H13        -8.7480   -2.6590   -0.6620 hc        1 MOL      0.085387
     34 H14       -10.6490   -3.8320   -1.3710 hc        1 MOL      0.054204
     35 H15        -9.6350   -3.4210   -2.7340 hc        1 MOL      0.054204
     36 H16       -11.2250   -1.8250   -3.5960 hx        1 MOL      0.093343
     37 H17       -12.0610   -1.7080   -1.9930 hx        1 MOL      0.093343
     38 H18       -13.2210   -3.6520   -2.6240 hn        1 MOL      0.234810
     39 H19       -13.0510   -3.1730   -4.0790 hn        1 MOL      0.234810
     40 H20       -12.0520   -4.3520   -3.3360 hn        1 MOL      0.234810
     41 N4         -6.0890    1.5530   -1.2600 n         1 MOL      0.055286
     42 C13        -4.9820    2.2920   -1.8830 c3        1 MOL      0.058811
     43 C14        -3.8380    2.6200   -0.9480 c         1 MOL      0.648627
     44 O6         -3.8050    3.6750   -0.3530 o         1 MOL     -0.656999
     45 C15        -5.5280    3.6060   -2.5850 c3        1 MOL     -0.475760
     46 C16        -6.5530    4.4420   -1.7670 c         1 MOL      0.574889
     47 O7         -7.2980    5.1450   -2.5220 o         1 MOL     -0.602777
     48 O8         -6.6940    4.3540   -0.5450 o         1 MOL     -0.602777
     49 H21        -6.1550    1.6280   -0.2590 hn        1 MOL     -0.066102
     50 H22        -4.5920    1.7040   -2.7130 h1        1 MOL      0.066670
     51 H23        -6.0870    3.2470   -3.4480 hc        1 MOL      0.150720
     52 H24        -4.6930    4.2590   -2.8400 hc        1 MOL      0.150720
     53 N5         -2.8870    1.6850   -0.8560 n         1 MOL     -0.471066
     54 C17        -2.7530    0.3910   -1.6560 c3        1 MOL     -0.178823
     55 C18        -3.5690   -0.7420   -1.0030 c         1 MOL      0.615806
     56 O9         -4.1570   -0.5050    0.0940 o         1 MOL     -0.504935
     57 H25        -2.1630    1.9190   -0.1960 hn        1 MOL      0.312594
     58 H26        -1.7060    0.0980   -1.5860 h1        1 MOL      0.123367
     59 H27        -3.0220    0.3670   -2.7080 h1        1 MOL      0.123367
     60 N6         -3.5940   -1.9090   -1.6360 n         1 MOL     -0.600980
     61 C19        -4.3110   -3.1310   -1.2140 c3        1 MOL      0.096358
     62 C20        -3.3970   -4.3850   -1.1160 c         1 MOL      0.582642
     63 O10        -2.4320   -4.4750   -1.9220 o         1 MOL     -0.479373
     64 C21        -5.5560   -3.3880   -2.1280 c3        1 MOL     -0.180490
     65 C22        -5.2580   -3.4900   -3.6220 c         1 MOL      0.681289
     66 O11        -4.9280   -2.4610   -4.2480 o         1 MOL     -0.657552
     67 O12        -5.3800   -4.5990   -4.2240 o         1 MOL     -0.657552
     68 H28        -2.9870   -1.9960   -2.4330 hn        1 MOL      0.369298
     69 H29        -4.7410   -2.9210   -0.2250 h1        1 MOL     -0.009794
     70 H30        -6.2910   -2.5880   -2.0230 hc        1 MOL      0.021243
     71 H31        -6.0690   -4.2770   -1.7620 hc        1 MOL      0.021243
     72 N7         -3.5960   -5.2510   -0.1570 n         1 MOL     -0.413671
     73 C23        -2.7880   -6.4690    0.0240 c3        1 MOL     -0.196358
     74 C24        -1.3220   -6.3460    0.3820 c         1 MOL      0.573873
     75 O13        -0.5620   -7.1900    0.0450 o         1 MOL     -0.520803
     76 H32        -4.4940   -5.2420    0.2990 hn        1 MOL      0.299080
     77 H33        -2.8080   -7.0840   -0.8800 h1        1 MOL      0.116276
     78 H34        -3.3210   -7.1350    0.6910 h1        1 MOL      0.116276
     79 N8         -1.0550   -5.2830    1.1300 n         1 MOL     -0.479525
     80 C25         0.3790   -4.8580    1.4400 c3        1 MOL      0.003046
     81 C26         0.7120   -3.5240    0.6260 c         1 MOL      0.717753
     82 O14        -0.1460   -2.8780   -0.0560 o         1 MOL     -0.543937
     83 C27         0.5950   -4.6690    2.9500 c3        1 MOL      0.384444
     84 C28        -0.2790   -3.6280    3.6950 c3        1 MOL     -0.217692
     85 O15         0.5870   -5.8630    3.6230 oh        1 MOL     -0.610713
     86 H35        -1.7670   -4.5940    1.3240 hn        1 MOL      0.254052
     87 H36         1.0090   -5.6450    1.0500 h1        1 MOL      0.064177
     88 H37         1.6350   -4.3500    3.0080 h1        1 MOL     -0.035695
     89 H38         0.8390   -6.5220    2.9810 ho        1 MOL      0.379229
     90 H39         0.1470   -3.5320    4.6960 hc        1 MOL      0.065303
     91 H40        -0.1880   -2.6270    3.2810 hc        1 MOL      0.065303
     92 H41        -1.3310   -3.9090    3.6510 hc        1 MOL      0.065303
     93 N9          1.9660   -3.1170    0.7810 n         1 MOL     -0.750905
     94 C29         2.6230   -1.8610    0.2620 c3        1 MOL      0.191968
     95 C30         4.1230   -1.8910   -0.1550 c         1 MOL      0.409171
     96 O16         4.6130   -1.0720   -0.9280 o         1 MOL     -0.467217
     97 C31         2.2640   -0.6660    1.2840 c3        1 MOL      0.096118
     98 C32         2.7200    0.7700    0.7680 c3        1 MOL     -0.000930
     99 C33         2.7320   -0.8980    2.7680 c3        1 MOL     -0.409305
    100 C34         1.9440    1.1240   -0.5300 c3        1 MOL     -0.328026
    101 H42         2.6100   -3.7420    1.2640 hn        1 MOL      0.309306
    102 H43         2.0230   -1.6940   -0.6340 h1        1 MOL      0.089484
    103 H44         1.1760   -0.5870    1.2560 hc        1 MOL      0.045221
    104 H45         3.7990    0.7400    0.6060 hc        1 MOL      0.033469
    105 H46         2.5380    1.5270    1.5340 hc        1 MOL      0.033469
    106 H47         3.8140   -0.7810    2.8240 hc        1 MOL      0.098448
    107 H48         2.2720   -0.0710    3.3050 hc        1 MOL      0.098448
    108 H49         2.4780   -1.8700    3.1820 hc        1 MOL      0.098448
    109 H50         2.3350    2.0560   -0.9290 hc        1 MOL      0.088814
    110 H51         2.0930    0.3350   -1.2750 hc        1 MOL      0.088814
    111 H52         0.8900    1.1580   -0.2680 hc        1 MOL      0.088814
    112 N10         4.8920   -2.9480    0.2200 n         1 MOL     -0.328870
    113 C35         6.1930   -3.3940   -0.2910 c3        1 MOL     -0.057837
    114 C36         7.1580   -3.2140    0.8930 c         1 MOL      0.621682
    115 O17         6.8910   -3.6840    1.9690 o         1 MOL     -0.546096
    116 C37         6.2780   -4.8590   -0.8150 c3        1 MOL      0.422537
    117 C38         4.9990   -5.4210   -1.4910 c3        1 MOL     -0.310483
    118 O18         7.3230   -4.8380   -1.7390 oh        1 MOL     -0.667705
    119 H53         4.5550   -3.6880    0.8200 hn        1 MOL      0.216581
    120 H54         6.5270   -2.8150   -1.1540 h1        1 MOL      0.127431
    121 H55         6.5880   -5.4380    0.0420 h1        1 MOL     -0.041671
    122 H56         7.7480   -5.6870   -1.8870 ho        1 MOL      0.411930
    123 H57         4.4520   -4.7670   -2.1710 hc        1 MOL      0.086545
    124 H58         5.3710   -6.2210   -2.1340 hc        1 MOL      0.086545
    125 H59         4.3060   -5.8600   -0.7780 hc        1 MOL      0.086545
    126 N11         8.2630   -2.4890    0.6750 n         1 MOL     -0.559914
    127 C39         9.2840   -2.2590    1.7030 c3        1 MOL      0.052709
    128 C40         9.6240   -0.7620    1.8780 c         1 MOL      0.636197
    129 O19         9.9130   -0.2220    2.9580 o         1 MOL     -0.558639
    130 C41        10.6280   -3.0360    1.4170 c3        1 MOL      0.234889
    131 C42        11.6880   -2.9730    2.5440 c3        1 MOL     -0.432451
    132 O20        11.1920   -2.4620    0.2950 oh        1 MOL     -0.612141
    133 H60         8.3870   -2.1080   -0.2540 hn        1 MOL      0.301824
    134 H61         8.9640   -2.6020    2.6930 h1        1 MOL      0.094828
    135 H62        10.5260   -4.0680    1.1000 h1        1 MOL      0.056439
    136 H63        12.1470   -2.5980    0.3390 ho        1 MOL      0.393080
    137 H64        11.6820   -2.0000    3.0430 hc        1 MOL      0.119020
    138 H65        11.3730   -3.6470    3.3390 hc        1 MOL      0.119020
    139 H66        12.6490   -3.3750    2.2190 hc        1 MOL      0.119020
    140 N12         9.5970    0.0150    0.7490 n         1 MOL     -0.471610
    141 C43         9.7370    1.4230    0.7730 c3        1 MOL      0.024161
    142 C44         8.7740    2.0680   -0.1920 c         1 MOL      0.594604
    143 O21         8.3050    1.3650   -1.1550 o         1 MOL     -0.546026
    144 C45        11.2030    1.8280    0.5210 c3        1 MOL     -0.145375
    145 C46        11.8380    1.3570   -0.7220 c3        1 MOL     -0.048767
    146 C47        13.1390    2.2020   -1.0490 c3        1 MOL      0.025169
    147 C48        13.7850    1.4800   -2.2500 c3        1 MOL      0.056480
    148 N13        15.1760    1.9140   -2.5800 n4        1 MOL     -0.224871
    149 H67         9.4500   -0.4300   -0.1430 hn        1 MOL      0.287764
    150 H68         9.4880    1.7560    1.7830 h1        1 MOL      0.097672
    151 H69        11.8300    1.4720    1.3330 hc        1 MOL      0.057511
    152 H70        11.3980    2.9030    0.6300 hc        1 MOL      0.057511
    153 H71        11.1460    1.4490   -1.5650 hc        1 MOL      0.045647
    154 H72        12.1140    0.3040   -0.6640 hc        1 MOL      0.045647
    155 H73        13.8480    2.1940   -0.2230 hc        1 MOL      0.025102
    156 H74        12.9950    3.2470   -1.3060 hc        1 MOL      0.025102
    157 H75        13.1850    1.6460   -3.1460 hx        1 MOL      0.058346
    158 H76        13.7320    0.4140   -2.0050 hx        1 MOL      0.058346
    159 H77        15.8560    1.6800   -1.8630 hn        1 MOL      0.224578
    160 H78        15.4450    1.5090   -3.4690 hn        1 MOL      0.224578
    161 H79        15.2590    2.9110   -2.7330 hn        1 MOL      0.224578
    162 N14         8.3950    3.3240   -0.0170 n         1 MOL     -0.550362
    163 C49         7.3340    4.0370   -0.8060 c3        1 MOL      0.286735
    164 C50         5.8960    3.7060   -0.4630 c         1 MOL      0.378567
    165 O22         5.1570    3.5480   -1.3810 o         1 MOL     -0.482735
    166 C51         7.6520    5.5460   -0.6000 c3        1 MOL     -0.144632
    167 C52         6.7290    6.4710   -1.5230 c3        1 MOL     -0.158212
    168 C53         7.1520    7.9260   -1.6100 c         1 MOL      0.657501
    169 O23         7.1690    8.5060   -2.7530 o         1 MOL     -0.631852
    170 O24         7.5600    8.5840   -0.5670 o         1 MOL     -0.631852
    171 H80         8.8710    3.8220    0.7280 hn        1 MOL      0.279835
    172 H81         7.4930    3.8020   -1.8590 h1        1 MOL      0.057058
    173 H82         8.7130    5.7000   -0.7720 hc        1 MOL      0.039118
    174 H83         7.5360    5.8420    0.4480 hc        1 MOL      0.039118
    175 H84         5.6990    6.3800   -1.1710 hc        1 MOL      0.048832
    176 H85         6.6720    6.0200   -2.5040 hc        1 MOL      0.048832
    177 N15         5.4480    3.5260    0.8310 n         1 MOL     -0.234502
    178 C54         6.0920    3.5400    2.1690 c3        1 MOL     -0.273275
    179 H86         6.5590    2.5730    2.3570 h1        1 MOL      0.108623
    180 H87         6.8520    4.3210    2.1990 h1        1 MOL      0.108623
    181 H88         5.3400    3.7340    2.9330 h1        1 MOL      0.108623
    182 H89         4.4410    3.4300    0.8580 hn        1 MOL      0.241982
    183 Ca1        -5.9130    4.6750    1.9050 Ca        1 MOL      1.693904
    184 O25        -5.2380    1.9750    1.7500 oh        1 MOL     -0.897509
    185 H90        -6.0020    1.3960    1.7620 ho        1 MOL      0.418440
    186 H91        -4.8090    1.8080    2.5850 ho        1 MOL      0.418440
    187 O26        -7.3700    6.8270    1.9640 oh        1 MOL     -0.897509
    188 H92        -8.2780    6.5330    1.8610 ho        1 MOL      0.418440
    189 H93        -7.3800    7.3590    2.7560 ho        1 MOL      0.418440
@<TRIPOS>BOND
     1    1    2 1   
     2    1    4 1   
     3    1    5 1   
     4    1    6 1   
     5    2    3 2   
     6    2    7 1   
     7    7    8 1   
     8    7   15 1   
     9    8    9 1   
    10    8   11 1   
    11    8   16 1   
    12    9   10 2   
    13    9   19 1   
    14   11   12 1   
    15   11   17 1   
    16   11   18 1   
    17   12   13 1   
    18   12   14 1   
    19   19   20 1   
    20   19   28 1   
    21   20   21 1   
    22   20   23 1   
    23   20   29 1   
    24   21   22 2   
    25   21   41 1   
    26   23   24 1   
    27   23   30 1   
    28   23   31 1   
    29   24   25 1   
    30   24   32 1   
    31   24   33 1   
    32   25   26 1   
    33   25   34 1   
    34   25   35 1   
    35   26   27 1   
    36   26   36 1   
    37   26   37 1   
    38   27   38 1   
    39   27   39 1   
    40   27   40 1   
    41   41   42 1   
    42   41   49 1   
    43   42   43 1   
    44   42   45 1   
    45   42   50 1   
    46   43   44 2   
    47   43   53 1   
    48   45   46 1   
    49   45   51 1   
    50   45   52 1   
    51   46   47 1   
    52   46   48 1   
    53   53   54 1   
    54   53   57 1   
    55   54   55 1   
    56   54   58 1   
    57   54   59 1   
    58   55   56 2   
    59   55   60 1   
    60   60   61 1   
    61   60   68 1   
    62   61   62 1   
    63   61   64 1   
    64   61   69 1   
    65   62   63 2   
    66   62   72 1   
    67   64   65 1   
    68   64   70 1   
    69   64   71 1   
    70   65   66 1   
    71   65   67 1   
    72   72   73 1   
    73   72   76 1   
    74   73   74 1   
    75   73   77 1   
    76   73   78 1   
    77   74   75 2   
    78   74   79 1   
    79   79   80 1   
    80   79   86 1   
    81   80   81 1   
    82   80   83 1   
    83   80   87 1   
    84   81   82 2   
    85   81   93 1   
    86   83   84 1   
    87   83   85 1   
    88   83   88 1   
    89   84   90 1   
    90   84   91 1   
    91   84   92 1   
    92   85   89 1   
    93   93   94 1   
    94   93  101 1   
    95   94   95 1   
    96   94   97 1   
    97   94  102 1   
    98   95   96 2   
    99   95  112 1   
   100   97   98 1   
   101   97   99 1   
   102   97  103 1   
   103   98  100 1   
   104   98  104 1   
   105   98  105 1   
   106   99  106 1   
   107   99  107 1   
   108   99  108 1   
   109  100  109 1   
   110  100  110 1   
   111  100  111 1   
   112  112  113 1   
   113  112  119 1   
   114  113  114 1   
   115  113  116 1   
   116  113  120 1   
   117  114  115 2   
   118  114  126 1   
   119  116  117 1   
   120  116  118 1   
   121  116  121 1   
   122  117  123 1   
   123  117  124 1   
   124  117  125 1   
   125  118  122 1   
   126  126  127 1   
   127  126  133 1   
   128  127  128 1   
   129  127  130 1   
   130  127  134 1   
   131  128  129 2   
   132  128  140 1   
   133  130  131 1   
   134  130  132 1   
   135  130  135 1   
   136  131  137 1   
   137  131  138 1   
   138  131  139 1   
   139  132  136 1   
   140  140  141 1   
   141  140  149 1   
   142  141  142 1   
   143  141  144 1   
   144  141  150 1   
   145  142  143 2   
   146  142  162 1   
   147  144  145 1   
   148  144  151 1   
   149  144  152 1   
   150  145  146 1   
   151  145  153 1   
   152  145  154 1   
   153  146  147 1   
   154  146  155 1   
   155  146  156 1   
   156  147  148 1   
   157  147  157 1   
   158  147  158 1   
   159  148  159 1   
   160  148  160 1   
   161  148  161 1   
   162  162  163 1   
   163  162  171 1   
   164  163  164 1   
   165  163  166 1   
   166  163  172 1   
   167  164  165 2   
   168  164  177 1   
   169  166  167 1   
   170  166  173 1   
   171  166  174 1   
   172  167  168 1   
   173  167  175 1   
   174  167  176 1   
   175  168  169 1   
   176  168  170 1   
   177  177  178 1   
   178  177  182 1   
   179  178  179 1   
   180  178  180 1   
   181  178  181 1   
   182  184  185 1   
   183  184  186 1   
   184  187  188 1   
   185  187  189 1   
@<TRIPOS>SUBSTRUCTURE
     1 MOL         1 TEMP              0 ****  ****    0 ROOT
