@<TRIPOS>MOLECULE
MOL
  179   176     1     0     0
SMALL
resp


@<TRIPOS>ATOM
      1 C1          0.6450   -5.7090    5.1390 c3        1 MOL     -0.426870
      2 C2          0.5760   -4.8320    3.9800 c         1 MOL      0.825014
      3 O1         -0.4440   -4.7320    3.3040 o         1 MOL     -0.677943
      4 H1          1.3540   -6.5140    4.9440 hc        1 MOL      0.123155
      5 H2          0.9740   -5.1390    6.0070 hc        1 MOL      0.123155
      6 H3         -0.3400   -6.1340    5.3340 hc        1 MOL      0.123155
      7 N1          1.6620   -4.1390    3.7140 n         1 MOL     -0.660142
      8 C3          1.8740   -3.5740    2.3900 c3        1 MOL      0.076569
      9 C4          2.0440   -4.6370    1.2700 c         1 MOL      0.528690
     10 O2          2.9200   -5.5300    1.2330 o         1 MOL     -0.526177
     11 C5          3.1200   -2.6580    2.4120 c3        1 MOL     -0.150061
     12 C6          3.3180   -1.7330    1.1650 c         1 MOL      0.637412
     13 O3          3.8740   -0.5760    1.2960 o         1 MOL     -0.754510
     14 O4          2.8220   -1.9700    0.0410 o         1 MOL     -0.754510
     15 H4          2.4080   -4.1220    4.3920 hn        1 MOL      0.352807
     16 H5          1.0520   -2.8860    2.1780 h1        1 MOL      0.078007
     17 H6          4.0370   -3.2420    2.3460 hc        1 MOL      0.074725
     18 H7          3.1260   -2.0930    3.3420 hc        1 MOL      0.074725
     19 N2          1.1590   -4.4700    0.2710 n         1 MOL     -0.250533
     20 C7          1.0970   -5.3090   -0.9860 c3        1 MOL     -0.186847
     21 C8          2.3240   -5.1870   -1.9560 c         1 MOL      0.573585
     22 O5          2.5050   -6.0110   -2.8440 o         1 MOL     -0.537267
     23 C9         -0.2760   -4.8750   -1.6850 c3        1 MOL     -0.069094
     24 C10        -1.4250   -5.4360   -0.8950 c3        1 MOL      0.162668
     25 C11        -2.7810   -5.0530   -1.4530 c3        1 MOL     -0.122213
     26 C12        -3.9780   -5.5290   -0.6370 c3        1 MOL      0.023237
     27 N3         -4.2120   -4.7310    0.5700 n4        1 MOL     -0.339302
     28 H8          0.4560   -3.7450    0.3560 hn        1 MOL      0.214582
     29 H9          0.9540   -6.3470   -0.6760 h1        1 MOL      0.125857
     30 H10        -0.3000   -5.2190   -2.7190 hc        1 MOL      0.054146
     31 H11        -0.3040   -3.7900   -1.7620 hc        1 MOL      0.054146
     32 H12        -1.3300   -5.0650    0.1310 hc        1 MOL     -0.008778
     33 H13        -1.2940   -6.5210   -0.7770 hc        1 MOL     -0.008778
     34 H14        -2.9660   -5.5140   -2.4230 hc        1 MOL      0.044356
     35 H15        -2.8240   -3.9670   -1.5790 hc        1 MOL      0.044356
     36 H16        -3.9590   -6.6110   -0.5110 hx        1 MOL      0.084642
     37 H17        -4.8530   -5.3200   -1.2410 hx        1 MOL      0.084642
     38 H18        -3.4000   -4.8750    1.1650 hn        1 MOL      0.314627
     39 H19        -4.2200   -3.7370    0.3920 hn        1 MOL      0.314627
     40 H20        -5.0920   -4.8990    1.0370 hn        1 MOL      0.314627
     41 N4          3.1750   -4.1170   -1.8000 n         1 MOL     -0.367782
     42 C13         4.3740   -3.9280   -2.6700 c3        1 MOL     -0.053310
     43 C14         5.6890   -3.5110   -1.9510 c         1 MOL      0.340865
     44 O6          6.7400   -3.2570   -2.5810 o         1 MOL     -0.511160
     45 C15         4.0270   -2.7860   -3.6330 c3        1 MOL     -0.077843
     46 C16         3.5670   -1.4750   -2.8550 c         1 MOL      0.594464
     47 O7          4.4900   -0.9430   -2.2450 o         1 MOL     -0.692621
     48 O8          2.3840   -1.0560   -2.8910 o         1 MOL     -0.692621
     49 H21         2.9790   -3.4050   -1.1050 hn        1 MOL      0.280264
     50 H22         4.5880   -4.8290   -3.2470 h1        1 MOL      0.140699
     51 H23         3.1550   -3.1130   -4.2060 hc        1 MOL      0.036363
     52 H24         4.8520   -2.6300   -4.3330 hc        1 MOL      0.036363
     53 N5          5.6030   -3.4490   -0.6200 n         1 MOL     -0.011158
     54 C17         6.7430   -3.2800    0.3060 c3        1 MOL     -0.361821
     55 C18         7.4370   -1.9630    0.2590 c         1 MOL      0.608705
     56 O9          8.4080   -1.7030    0.9260 o         1 MOL     -0.556482
     57 H25         4.7280   -3.6360   -0.1510 hn        1 MOL      0.105036
     58 H26         7.4250   -4.0780    0.0090 h1        1 MOL      0.146130
     59 H27         6.3600   -3.5030    1.3070 h1        1 MOL      0.146130
     60 N6          6.8740   -0.9290   -0.3750 n         1 MOL     -0.204210
     61 C19         7.4330    0.3950   -0.5850 c3        1 MOL     -0.061516
     62 C20         6.3930    1.4870   -0.3570 c         1 MOL      0.580163
     63 O10         5.1940    1.2610   -0.3700 o         1 MOL     -0.506244
     64 C21         7.9140    0.3750   -2.0650 c3        1 MOL     -0.339492
     65 C22         9.2270   -0.4350   -2.1790 c         1 MOL      0.697341
     66 N7          9.1940   -1.5300   -2.9620 n         1 MOL     -0.839514
     67 O11        10.2490   -0.1520   -1.6010 o         1 MOL     -0.538911
     68 H28         6.0820   -1.1340   -0.9720 hn        1 MOL      0.276619
     69 H29         8.3160    0.5760    0.0420 h1        1 MOL      0.082406
     70 H30         8.1580    1.3690   -2.4370 hc        1 MOL      0.095517
     71 H31         7.1200   -0.0320   -2.6910 hc        1 MOL      0.095517
     72 H32         8.2970   -1.8550   -3.3050 hn        1 MOL      0.381159
     73 H33         9.9840   -2.1340   -3.0980 hn        1 MOL      0.381159
     74 N8          6.8990    2.7500   -0.3660 n         1 MOL     -0.420152
     75 C23         6.0480    3.9800   -0.5060 c3        1 MOL     -0.187952
     76 C24         5.1080    4.2730    0.6060 c         1 MOL      0.696724
     77 O12         5.4240    4.1150    1.7700 o         1 MOL     -0.522422
     78 H34         7.8850    2.9680   -0.4060 hn        1 MOL      0.328788
     79 H35         5.4220    3.8450   -1.3870 h1        1 MOL      0.101956
     80 H36         6.6560    4.8790   -0.4740 h1        1 MOL      0.101956
     81 N9          3.8590    4.7830    0.3520 n         1 MOL     -0.651538
     82 C25         2.7550    4.8280    1.3100 c3        1 MOL      0.254923
     83 C26         2.1880    3.4500    1.5270 c         1 MOL      0.449288
     84 O13         2.6890    2.5310    0.9610 o         1 MOL     -0.421494
     85 C27         1.6070    5.7350    0.7000 c3        1 MOL     -0.106036
     86 C28         2.0380    7.1090    0.2320 ca        1 MOL      0.062634
     87 C29         2.5980    8.0500    1.1240 ca        1 MOL     -0.171822
     88 C30         1.7210    7.6020   -1.0740 ca        1 MOL     -0.171822
     89 C31         2.9930    9.2880    0.7310 ca        1 MOL     -0.228058
     90 C32         1.9730    8.9020   -1.5160 ca        1 MOL     -0.228058
     91 C33         2.7310    9.7390   -0.6150 ca        1 MOL      0.283840
     92 O14         3.1820   10.9080   -1.0980 oh        1 MOL     -0.434538
     93 H37         3.6180    5.0510   -0.5920 hn        1 MOL      0.277813
     94 H38         3.0260    5.2950    2.2480 h1        1 MOL      0.039419
     95 H39         0.8040    5.7860    1.4280 hc        1 MOL      0.035935
     96 H40         1.1660    5.1850   -0.1330 hc        1 MOL      0.035935
     97 H41         2.9050    7.7430    2.1130 ha        1 MOL      0.132314
     98 H42         1.1610    7.0250   -1.7960 ha        1 MOL      0.132314
     99 H43         3.5650    9.9320    1.3720 ha        1 MOL      0.157562
    100 H44         1.7120    9.3620   -2.4520 ha        1 MOL      0.157562
    101 H45         3.5780   11.3810   -0.3730 ho        1 MOL      0.359749
    102 N10         1.0460    3.3630    2.2630 n         1 MOL     -0.604755
    103 C34         0.1620    2.2130    2.6130 c3        1 MOL      0.184250
    104 C35        -0.1740    1.0110    1.5950 c         1 MOL      0.361189
    105 O15         0.7450    0.4430    0.9860 o         1 MOL     -0.554353
    106 C36         0.7020    1.6810    3.9100 c3        1 MOL      0.138843
    107 C37         1.7200    0.5400    3.7510 c3        1 MOL      0.106792
    108 C38        -0.5300    1.2890    4.8820 c3        1 MOL     -0.193459
    109 C39         2.3880    0.2940    5.1520 c3        1 MOL     -0.307107
    110 H46         0.7810    4.2000    2.7660 hn        1 MOL      0.310980
    111 H47        -0.7930    2.7200    2.7290 h1        1 MOL      0.027053
    112 H48         1.1340    2.4900    4.4990 hc        1 MOL      0.024636
    113 H49         2.4640    0.9240    3.0460 hc        1 MOL      0.042839
    114 H50         1.2980   -0.4340    3.4850 hc        1 MOL      0.042839
    115 H51        -0.0700    1.1760    5.8610 hc        1 MOL      0.033065
    116 H52        -1.2820    2.0670    5.0010 hc        1 MOL      0.033065
    117 H53        -0.9610    0.3700    4.4920 hc        1 MOL      0.033065
    118 H54         3.0200    1.1180    5.4560 hc        1 MOL      0.075376
    119 H55         1.6930    0.1360    5.9830 hc        1 MOL      0.075376
    120 H56         3.0380   -0.5760    5.1760 hc        1 MOL      0.075376
    121 N11        -1.4310    0.4890    1.5830 n         1 MOL     -0.412400
    122 C40        -1.8690   -0.7790    1.0790 c3        1 MOL      0.113691
    123 C41        -3.2890   -0.7580    0.4260 c         1 MOL      0.649110
    124 O16        -3.8520   -1.8590    0.3420 o         1 MOL     -0.577314
    125 C42        -1.6480   -1.7830    2.2410 c3        1 MOL      0.034777
    126 O17        -1.7750   -3.0740    1.7480 oh        1 MOL     -0.633413
    127 H57        -2.0480    0.8750    2.2830 hn        1 MOL      0.254071
    128 H58        -1.2550   -1.0320    0.2090 h1        1 MOL      0.129491
    129 H59        -2.4660   -1.6750    2.9610 h1        1 MOL      0.054783
    130 H60        -0.6540   -1.7510    2.7020 h1        1 MOL      0.054783
    131 H61        -1.4740   -3.5880    2.5070 ho        1 MOL      0.422134
    132 N12        -3.8230    0.3680   -0.0390 n         1 MOL     -0.647015
    133 C43        -5.2010    0.4710   -0.4590 c3        1 MOL      0.244460
    134 C44        -5.3960    1.1830   -1.8460 c         1 MOL      0.564124
    135 O18        -4.4720    1.9090   -2.2690 o         1 MOL     -0.555213
    136 C45        -5.8620    1.3930    0.6200 c3        1 MOL     -0.169636
    137 H62        -3.3740    1.2650    0.0610 hn        1 MOL      0.293360
    138 H63        -5.6940   -0.5000   -0.4730 h1        1 MOL      0.051983
    139 H64        -5.4290    2.3910    0.7260 hc        1 MOL      0.059843
    140 H65        -6.8810    1.6200    0.2890 hc        1 MOL      0.059843
    141 H66        -5.9040    0.9100    1.5860 hc        1 MOL      0.059843
    142 N13        -6.5550    1.1050   -2.4990 n         1 MOL     -0.668353
    143 C46        -7.6830    0.2140   -2.2310 c3        1 MOL      0.596598
    144 C47        -8.9360    0.9970   -2.6310 c         1 MOL      0.330289
    145 O19        -8.9280    1.6330   -3.7110 o         1 MOL     -0.532630
    146 C48        -7.5900   -1.1530   -2.9620 c3        1 MOL     -0.377122
    147 H67        -6.6340    1.6800   -3.3150 hn        1 MOL      0.349873
    148 H68        -7.7780   -0.0100   -1.1670 h1        1 MOL     -0.112429
    149 H69        -7.3260   -0.9770   -4.0060 hc        1 MOL      0.100840
    150 H70        -6.7530   -1.6480   -2.4850 hc        1 MOL      0.100840
    151 H71        -8.5260   -1.6890   -2.8320 hc        1 MOL      0.100840
    152 N14       -10.1140    0.9510   -1.9910 n         1 MOL     -0.485350
    153 C49       -10.4130    0.2630   -0.7200 c3        1 MOL      0.071058
    154 C50        -9.9170    0.8950    0.6480 c         1 MOL      0.531506
    155 O20        -9.4730    0.2410    1.5770 o         1 MOL     -0.514193
    156 C51       -11.8330   -0.2810   -0.6580 c3        1 MOL     -0.011420
    157 C52       -12.9890    0.6800   -0.1560 c3        1 MOL     -0.137599
    158 C53       -14.3600    0.0810   -0.2990 c         1 MOL      0.732454
    159 O21       -15.3040    0.8690   -0.2130 o         1 MOL     -0.722438
    160 O22       -14.4760   -1.1670   -0.3950 o         1 MOL     -0.722438
    161 H72       -10.8870    1.3530   -2.5100 hn        1 MOL      0.371398
    162 H73        -9.7850   -0.6180   -0.7400 h1        1 MOL     -0.005649
    163 H74       -11.8760   -1.1450    0.0050 hc        1 MOL      0.027202
    164 H75       -12.1110   -0.5320   -1.6810 hc        1 MOL      0.027202
    165 H76       -12.9990    1.6160   -0.7200 hc        1 MOL      0.006488
    166 H77       -12.8290    0.9050    0.8970 hc        1 MOL      0.006488
    167 N15       -10.1100    2.2640    0.6840 n         1 MOL     -0.358670
    168 C54        -9.6510    3.0330    1.8190 c3        1 MOL     -0.183221
    169 H78       -10.4000    3.7840    2.0740 h1        1 MOL      0.095176
    170 H79        -9.4980    2.3700    2.6700 h1        1 MOL      0.095176
    171 H80        -8.7120    3.5270    1.5680 h1        1 MOL      0.095176
    172 H81       -10.6290    2.7720   -0.0100 hn        1 MOL      0.272067
    173 Ca1         2.6760    0.5900   -0.7800 Ca        1 MOL      1.767915
    174 O23         0.4110    0.8650   -2.0730 oh        1 MOL     -0.892373
    175 H82        -0.3860    0.3600   -1.9750 ho        1 MOL      0.437943
    176 H83         0.1640    1.6330   -2.5800 ho        1 MOL      0.437943
    177 O24         3.0010    2.7620   -2.3700 oh        1 MOL     -0.892373
    178 H84         3.2270    3.6660   -2.5950 ho        1 MOL      0.437943
    179 H85         2.5870    2.4210   -3.1660 ho        1 MOL      0.437943
@<TRIPOS>BOND
     1    1    2 1   
     2    1    4 1   
     3    1    5 1   
     4    1    6 1   
     5    2    3 2   
     6    2    7 1   
     7    7    8 1   
     8    7   15 1   
     9    8    9 1   
    10    8   11 1   
    11    8   16 1   
    12    9   10 2   
    13    9   19 1   
    14   11   12 1   
    15   11   17 1   
    16   11   18 1   
    17   12   13 1   
    18   12   14 1   
    19   19   20 1   
    20   19   28 1   
    21   20   21 1   
    22   20   23 1   
    23   20   29 1   
    24   21   22 2   
    25   21   41 1   
    26   23   24 1   
    27   23   30 1   
    28   23   31 1   
    29   24   25 1   
    30   24   32 1   
    31   24   33 1   
    32   25   26 1   
    33   25   34 1   
    34   25   35 1   
    35   26   27 1   
    36   26   36 1   
    37   26   37 1   
    38   27   38 1   
    39   27   39 1   
    40   27   40 1   
    41   41   42 1   
    42   41   49 1   
    43   42   43 1   
    44   42   45 1   
    45   42   50 1   
    46   43   44 2   
    47   43   53 1   
    48   45   46 1   
    49   45   51 1   
    50   45   52 1   
    51   46   47 1   
    52   46   48 1   
    53   53   54 1   
    54   53   57 1   
    55   54   55 1   
    56   54   58 1   
    57   54   59 1   
    58   55   56 2   
    59   55   60 1   
    60   60   61 1   
    61   60   68 1   
    62   61   62 1   
    63   61   64 1   
    64   61   69 1   
    65   62   63 2   
    66   62   74 1   
    67   64   65 1   
    68   64   70 1   
    69   64   71 1   
    70   65   66 1   
    71   65   67 2   
    72   66   72 1   
    73   66   73 1   
    74   74   75 1   
    75   74   78 1   
    76   75   76 1   
    77   75   79 1   
    78   75   80 1   
    79   76   77 2   
    80   76   81 1   
    81   81   82 1   
    82   81   93 1   
    83   82   83 1   
    84   82   85 1   
    85   82   94 1   
    86   83   84 2   
    87   83  102 1   
    88   85   86 1   
    89   85   95 1   
    90   85   96 1   
    91   86   87 ar  
    92   86   88 ar  
    93   87   89 ar  
    94   87   97 1   
    95   88   90 ar  
    96   88   98 1   
    97   89   91 ar  
    98   89   99 1   
    99   90   91 ar  
   100   90  100 1   
   101   91   92 1   
   102   92  101 1   
   103  102  103 1   
   104  102  110 1   
   105  103  104 1   
   106  103  106 1   
   107  103  111 1   
   108  104  105 2   
   109  104  121 1   
   110  106  107 1   
   111  106  108 1   
   112  106  112 1   
   113  107  109 1   
   114  107  113 1   
   115  107  114 1   
   116  108  115 1   
   117  108  116 1   
   118  108  117 1   
   119  109  118 1   
   120  109  119 1   
   121  109  120 1   
   122  121  122 1   
   123  121  127 1   
   124  122  123 1   
   125  122  125 1   
   126  122  128 1   
   127  123  124 2   
   128  123  132 1   
   129  125  126 1   
   130  125  129 1   
   131  125  130 1   
   132  126  131 1   
   133  132  133 1   
   134  132  137 1   
   135  133  134 1   
   136  133  136 1   
   137  133  138 1   
   138  134  135 2   
   139  134  142 1   
   140  136  139 1   
   141  136  140 1   
   142  136  141 1   
   143  142  143 1   
   144  142  147 1   
   145  143  144 1   
   146  143  146 1   
   147  143  148 1   
   148  144  145 2   
   149  144  152 1   
   150  146  149 1   
   151  146  150 1   
   152  146  151 1   
   153  152  153 1   
   154  152  161 1   
   155  153  154 1   
   156  153  156 1   
   157  153  162 1   
   158  154  155 2   
   159  154  167 1   
   160  156  157 1   
   161  156  163 1   
   162  156  164 1   
   163  157  158 1   
   164  157  165 1   
   165  157  166 1   
   166  158  159 1   
   167  158  160 1   
   168  167  168 1   
   169  167  172 1   
   170  168  169 1   
   171  168  170 1   
   172  168  171 1   
   173  174  175 1   
   174  174  176 1   
   175  177  178 1   
   176  177  179 1   
@<TRIPOS>SUBSTRUCTURE
     1 MOL         1 TEMP              0 ****  ****    0 ROOT
