@<TRIPOS>MOLECULE
MOL
  178   175     1     0     0
SMALL
resp


@<TRIPOS>ATOM
      1 C1          4.1830   -2.1070    2.7910 c3        1 MOL     -0.429180
      2 C2          5.3840   -1.1520    2.5570 c         1 MOL      0.727719
      3 O1          5.1970    0.0490    2.2570 o         1 MOL     -0.595282
      4 H1          3.8850   -2.0650    3.8400 hc        1 MOL      0.116738
      5 H2          3.3460   -1.8000    2.1640 hc        1 MOL      0.116738
      6 H3          4.4730   -3.1260    2.5380 hc        1 MOL      0.116738
      7 N1          6.6020   -1.6930    2.7050 n         1 MOL     -0.587300
      8 C3          7.8710   -1.0020    2.6740 c3        1 MOL      0.155404
      9 C4          8.2880   -0.8000    1.2110 c         1 MOL      0.498802
     10 O2          8.0910   -1.7530    0.4220 o         1 MOL     -0.517393
     11 C5          8.8070   -1.8560    3.4850 c3        1 MOL     -0.192399
     12 C6         10.2620   -1.4000    3.6690 c         1 MOL      0.697166
     13 O3         10.7450   -0.4390    2.9980 o         1 MOL     -0.730070
     14 O4         10.8940   -2.0140    4.5560 o         1 MOL     -0.730070
     15 H4          6.6290   -2.7030    2.6770 hn        1 MOL      0.296190
     16 H5          7.7730   -0.0080    3.1150 h1        1 MOL      0.042505
     17 H6          8.7740   -2.8590    3.0680 hc        1 MOL      0.035738
     18 H7          8.4870   -1.9890    4.5200 hc        1 MOL      0.035738
     19 N2          8.8080    0.3830    0.8070 n         1 MOL     -0.370943
     20 C7          9.0300    0.6530   -0.6330 c3        1 MOL      0.177564
     21 C8          7.6950    0.6030   -1.4770 c         1 MOL      0.601176
     22 O5          7.7700    0.6070   -2.6790 o         1 MOL     -0.591455
     23 C9          9.6160    2.0280   -0.7980 c3        1 MOL     -0.348963
     24 H8          8.6640    1.2300    1.3410 hn        1 MOL      0.247495
     25 H9          9.6980   -0.1260   -1.0020 h1        1 MOL      0.077636
     26 H10         8.8620    2.7590   -0.5190 hc        1 MOL      0.089632
     27 H11        10.4750    2.0970   -0.1200 hc        1 MOL      0.089632
     28 H12         9.9670    2.3180   -1.7800 hc        1 MOL      0.089632
     29 N3          6.5070    0.3410   -0.8850 n         1 MOL     -0.745320
     30 C10         5.2530   -0.0880   -1.5160 c3        1 MOL      0.699898
     31 C11         4.8730    0.4860   -2.8660 c         1 MOL      0.296718
     32 O6          4.3830   -0.1820   -3.8490 o         1 MOL     -0.446910
     33 C12         5.1950   -1.6320   -1.3670 c3        1 MOL     -0.352792
     34 C13         3.8210   -2.2330   -1.8810 c         1 MOL      0.711529
     35 O7          2.7880   -1.7320   -1.4650 o         1 MOL     -0.765292
     36 O8          3.7310   -3.3440   -2.5240 o         1 MOL     -0.765292
     37 H13         6.6860    0.1650    0.0960 hn        1 MOL      0.224833
     38 H14         4.4330    0.2350   -0.8680 h1        1 MOL     -0.038525
     39 H15         5.3930   -1.9780   -0.3560 hc        1 MOL      0.070244
     40 H16         6.0000   -1.9110   -2.0470 hc        1 MOL      0.070244
     41 N4          4.9610    1.8670   -2.9530 n         1 MOL     -0.168209
     42 C14         4.5020    2.5650   -4.1820 c3        1 MOL     -0.351551
     43 C15         3.0780    3.0650   -4.3030 c         1 MOL      0.551347
     44 O9          2.6770    3.4790   -5.4020 o         1 MOL     -0.543208
     45 H17         5.3380    2.3750   -2.1670 hn        1 MOL      0.203744
     46 H18         4.6870    1.8700   -5.0020 h1        1 MOL      0.146878
     47 H19         5.1850    3.4120   -4.2120 h1        1 MOL      0.146878
     48 N5          2.3460    3.1250   -3.1580 n         1 MOL     -0.227812
     49 C16         1.0130    3.6900   -3.0540 c3        1 MOL     -0.004794
     50 C17         0.8110    4.7100   -1.8720 c         1 MOL      0.418149
     51 O10         1.3830    4.4900   -0.8210 o         1 MOL     -0.459676
     52 C18         0.0650    2.4900   -2.8890 c3        1 MOL     -0.363395
     53 C19        -1.3880    2.8660   -2.7420 c         1 MOL      0.657881
     54 N6         -2.1260    2.6230   -1.7280 n         1 MOL     -0.708749
     55 O11        -1.9700    3.5710   -3.5880 o         1 MOL     -0.594546
     56 H20         2.7190    2.7910   -2.2870 hn        1 MOL      0.169830
     57 H21         0.6960    4.1840   -3.9660 h1        1 MOL      0.055974
     58 H22         0.3910    2.0070   -1.9660 hc        1 MOL      0.166358
     59 H23         0.1330    1.7720   -3.7000 hc        1 MOL      0.166358
     60 H24        -1.6580    2.2730   -0.9120 hn        1 MOL      0.351454
     61 H25        -3.0430    3.0420   -1.6450 hn        1 MOL      0.351454
     62 N7          0.0500    5.7930   -2.0540 n         1 MOL     -0.355437
     63 C20        -0.4580    6.7070   -1.0780 c3        1 MOL     -0.060308
     64 C21        -1.7230    6.2870   -0.4320 c         1 MOL      0.596871
     65 O12        -2.5480    5.8220   -1.2000 o         1 MOL     -0.492612
     66 H26        -0.4380    5.8350   -2.9390 hn        1 MOL      0.289320
     67 H27        -0.5540    7.6980   -1.5250 h1        1 MOL      0.053969
     68 H28         0.3060    6.6580   -0.3070 h1        1 MOL      0.053969
     69 N8         -1.9120    6.4810    0.8360 n         1 MOL     -0.484723
     70 C22        -2.9960    6.1000    1.6930 c3        1 MOL     -0.138473
     71 C23        -2.9100    4.7170    2.3510 c         1 MOL      0.632484
     72 O13        -3.9300    4.3410    2.9470 o         1 MOL     -0.561113
     73 C24        -3.1600    7.1810    2.7790 c3        1 MOL      0.535047
     74 C25        -2.0420    7.1820    3.8950 c3        1 MOL     -0.354750
     75 O14        -3.1600    8.4650    2.2070 oh        1 MOL     -0.647194
     76 H29        -1.1690    7.0100    1.2670 hn        1 MOL      0.243675
     77 H30        -3.9170    5.9810    1.1260 h1        1 MOL      0.113242
     78 H31        -4.0860    6.9320    3.2930 h1        1 MOL     -0.009354
     79 H32        -2.2820    8.6740    1.8850 ho        1 MOL      0.385108
     80 H33        -1.9160    8.1590    4.3590 hc        1 MOL      0.081539
     81 H34        -2.1640    6.4890    4.7230 hc        1 MOL      0.081539
     82 H35        -1.1270    6.9560    3.3650 hc        1 MOL      0.081539
     83 N9         -1.7640    3.9870    2.1800 n         1 MOL     -0.518631
     84 C26        -1.5950    2.6230    2.7510 c3        1 MOL      0.018922
     85 C27        -1.3040    1.6690    1.6200 c         1 MOL      0.478723
     86 O15        -0.5300    1.9500    0.6800 o         1 MOL     -0.472563
     87 C28        -0.3940    2.4870    3.7630 c3        1 MOL      0.161710
     88 C29        -0.6700    3.4820    4.9700 c3        1 MOL     -0.330044
     89 C30        -0.2690    1.0530    4.3070 c3        1 MOL     -0.344614
     90 C31        -1.8470    3.1480    5.8870 c3        1 MOL     -0.046447
     91 H36        -0.9760    4.3560    1.6720 hn        1 MOL      0.333044
     92 H37        -2.4730    2.2470    3.2790 h1        1 MOL      0.125512
     93 H38         0.4820    2.8790    3.2590 hc        1 MOL      0.011942
     94 H39        -0.7680    4.4990    4.5990 hc        1 MOL      0.101558
     95 H40         0.0990    3.3020    5.7190 hc        1 MOL      0.101558
     96 H41        -1.1880    0.4820    4.4810 hc        1 MOL      0.113156
     97 H42         0.2340    0.4640    3.5490 hc        1 MOL      0.113156
     98 H43         0.4360    1.1140    5.1340 hc        1 MOL      0.113156
     99 H44        -1.9750    3.9490    6.6260 hc        1 MOL      0.020754
    100 H45        -2.7170    3.0150    5.2500 hc        1 MOL      0.020754
    101 H46        -1.6150    2.1910    6.3540 hc        1 MOL      0.020754
    102 N10        -2.0640    0.5350    1.6110 n         1 MOL     -0.573960
    103 C32        -2.0090   -0.5590    0.7090 c3        1 MOL      0.446326
    104 C33        -3.2930   -1.0620    0.0890 c         1 MOL      0.301805
    105 O16        -3.3600   -2.1900   -0.4370 o         1 MOL     -0.438967
    106 C34        -1.1320   -1.6830    1.3600 c3        1 MOL      0.000318
    107 C35        -0.3390   -2.5160    0.3150 c         1 MOL      0.609594
    108 O17        -0.1530   -2.1350   -0.8780 o         1 MOL     -0.677662
    109 O18         0.2700   -3.5210    0.7410 o         1 MOL     -0.677662
    110 H47        -2.7230    0.3950    2.3680 hn        1 MOL      0.275966
    111 H48        -1.4050   -0.2880   -0.1520 h1        1 MOL     -0.028983
    112 H49        -1.7500   -2.3260    1.9980 hc        1 MOL     -0.021748
    113 H50        -0.4470   -1.2210    2.0520 hc        1 MOL     -0.021748
    114 N11        -4.2900   -0.2600    0.1530 n         1 MOL     -0.395008
    115 C36        -5.6230   -0.4880   -0.4860 c3        1 MOL      0.360759
    116 C37        -6.2620   -1.7410    0.1650 c         1 MOL      0.077079
    117 O19        -6.0490   -1.8770    1.3620 o         1 MOL     -0.457536
    118 C38        -6.4870    0.7620   -0.2610 c3        1 MOL     -0.122917
    119 C39        -6.2100    1.9060   -1.1840 ca        1 MOL      0.023753
    120 C40        -5.7900    3.1440   -0.6700 ca        1 MOL     -0.147671
    121 C41        -6.3950    1.7520   -2.5860 ca        1 MOL     -0.147671
    122 C42        -5.3830    4.1360   -1.5520 ca        1 MOL     -0.119738
    123 C43        -6.0540    2.8520   -3.5140 ca        1 MOL     -0.119738
    124 C44        -5.5350    4.0400   -2.9890 ca        1 MOL     -0.123896
    125 H51        -4.1440    0.6140    0.6290 hn        1 MOL      0.198538
    126 H52        -5.4110   -0.7080   -1.5370 h1        1 MOL     -0.007689
    127 H53        -6.4030    0.9750    0.8050 hc        1 MOL      0.067184
    128 H54        -7.5330    0.4560   -0.3750 hc        1 MOL      0.067184
    129 H55        -5.7830    3.2290    0.4040 ha        1 MOL      0.098466
    130 H56        -6.8130    0.8270   -2.9670 ha        1 MOL      0.098466
    131 H57        -4.9530    5.0540   -1.1730 ha        1 MOL      0.122177
    132 H58        -6.1280    2.7150   -4.5790 ha        1 MOL      0.122177
    133 H59        -5.2880    4.7900   -3.7190 ha        1 MOL      0.137480
    134 N12        -6.9860   -2.5080   -0.5320 n         1 MOL      0.022129
    135 C45        -7.5850   -3.8040   -0.0870 c3        1 MOL      0.200759
    136 C46        -6.6070   -4.7340    0.7380 c         1 MOL      0.312042
    137 O20        -7.0740   -5.3550    1.6880 o         1 MOL     -0.522551
    138 C47        -7.8490   -4.5310   -1.3710 c3        1 MOL     -0.067326
    139 C48        -8.2570   -3.4010   -2.3100 c3        1 MOL     -0.132879
    140 C49        -7.3260   -2.2700   -1.9430 c3        1 MOL     -0.131151
    141 H60        -8.4980   -3.5820    0.4630 h1        1 MOL      0.027758
    142 H61        -6.9570   -4.9820   -1.8030 hc        1 MOL      0.053175
    143 H62        -8.6280   -5.2410   -1.0930 hc        1 MOL      0.053175
    144 H63        -8.1170   -3.7300   -3.3390 hc        1 MOL      0.049205
    145 H64        -9.3140   -3.2100   -2.1770 hc        1 MOL      0.049205
    146 H65        -6.4490   -2.4230   -2.5690 h1        1 MOL      0.099410
    147 H66        -7.7730   -1.3000   -2.1290 h1        1 MOL      0.099410
    148 N13        -5.2450   -4.7330    0.5310 n         1 MOL     -0.302420
    149 C50        -4.2450   -5.4180    1.3220 c3        1 MOL     -0.025544
    150 C51        -4.2330   -4.9050    2.7530 c         1 MOL      0.446875
    151 O21        -3.6040   -5.5660    3.5500 o         1 MOL     -0.552587
    152 C52        -2.7970   -5.3770    0.7140 c3        1 MOL     -0.111884
    153 C53        -2.6840   -5.8250   -0.7610 c3        1 MOL     -0.225664
    154 C54        -1.2980   -5.5960   -1.3410 c         1 MOL      0.773150
    155 O22        -0.2790   -6.1460   -0.9370 o         1 MOL     -0.769617
    156 O23        -1.1340   -4.8590   -2.2780 o         1 MOL     -0.769617
    157 H67        -4.9250   -3.9890   -0.0660 hn        1 MOL      0.221679
    158 H68        -4.5510   -6.4670    1.2960 h1        1 MOL      0.112383
    159 H69        -2.2330   -5.9750    1.4270 hc        1 MOL      0.073515
    160 H70        -2.4860   -4.3290    0.8110 hc        1 MOL      0.073515
    161 H71        -3.4580   -5.2930   -1.3180 hc        1 MOL      0.051598
    162 H72        -2.9020   -6.8810   -0.9010 hc        1 MOL      0.051598
    163 N14        -4.7500   -3.7120    3.1020 n         1 MOL     -0.075442
    164 C55        -4.6730   -3.1550    4.4510 c3        1 MOL     -0.124307
    165 H73        -3.9440   -3.7180    5.0340 h1        1 MOL      0.049675
    166 H74        -4.3650   -2.1100    4.3960 h1        1 MOL      0.049675
    167 H75        -5.6500   -3.2220    4.9280 h1        1 MOL      0.049675
    168 H76        -5.0240   -3.0730    2.3720 hn        1 MOL      0.145623
    169 Ca1         1.4170   -4.1300   -1.5320 Ca        1 MOL      1.798029
    170 O24         2.2600   -6.0260   -3.4330 oh        1 MOL     -0.869975
    171 O25         3.0570   -5.1070    0.3930 oh        1 MOL     -0.869975
    172 H77         2.3840   -6.8310   -3.9380 ho        1 MOL      0.420558
    173 H78         3.9380   -5.3100    0.0740 ho        1 MOL      0.420558
    174 H79         2.2350   -5.3310   -4.1000 ho        1 MOL      0.420558
    175 H80         3.0810   -5.3360    1.3210 ho        1 MOL      0.420558
    176 O26         1.1810   -3.3220   -4.0840 oh        1 MOL     -0.869975
    177 H81         1.9000   -3.0160   -4.6360 ho        1 MOL      0.420558
    178 H82         0.3900   -2.9890   -4.5100 ho        1 MOL      0.420558
@<TRIPOS>BOND
     1    1    2 1   
     2    1    4 1   
     3    1    5 1   
     4    1    6 1   
     5    2    3 2   
     6    2    7 1   
     7    7    8 1   
     8    7   15 1   
     9    8    9 1   
    10    8   11 1   
    11    8   16 1   
    12    9   10 2   
    13    9   19 1   
    14   11   12 1   
    15   11   17 1   
    16   11   18 1   
    17   12   13 1   
    18   12   14 1   
    19   19   20 1   
    20   19   24 1   
    21   20   21 1   
    22   20   23 1   
    23   20   25 1   
    24   21   22 2   
    25   21   29 1   
    26   23   26 1   
    27   23   27 1   
    28   23   28 1   
    29   29   30 1   
    30   29   37 1   
    31   30   31 1   
    32   30   33 1   
    33   30   38 1   
    34   31   32 2   
    35   31   41 1   
    36   33   34 1   
    37   33   39 1   
    38   33   40 1   
    39   34   35 1   
    40   34   36 1   
    41   41   42 1   
    42   41   45 1   
    43   42   43 1   
    44   42   46 1   
    45   42   47 1   
    46   43   44 2   
    47   43   48 1   
    48   48   49 1   
    49   48   56 1   
    50   49   50 1   
    51   49   52 1   
    52   49   57 1   
    53   50   51 2   
    54   50   62 1   
    55   52   53 1   
    56   52   58 1   
    57   52   59 1   
    58   53   54 1   
    59   53   55 2   
    60   54   60 1   
    61   54   61 1   
    62   62   63 1   
    63   62   66 1   
    64   63   64 1   
    65   63   67 1   
    66   63   68 1   
    67   64   65 2   
    68   64   69 1   
    69   69   70 1   
    70   69   76 1   
    71   70   71 1   
    72   70   73 1   
    73   70   77 1   
    74   71   72 2   
    75   71   83 1   
    76   73   74 1   
    77   73   75 1   
    78   73   78 1   
    79   74   80 1   
    80   74   81 1   
    81   74   82 1   
    82   75   79 1   
    83   83   84 1   
    84   83   91 1   
    85   84   85 1   
    86   84   87 1   
    87   84   92 1   
    88   85   86 2   
    89   85  102 1   
    90   87   88 1   
    91   87   89 1   
    92   87   93 1   
    93   88   90 1   
    94   88   94 1   
    95   88   95 1   
    96   89   96 1   
    97   89   97 1   
    98   89   98 1   
    99   90   99 1   
   100   90  100 1   
   101   90  101 1   
   102  102  103 1   
   103  102  110 1   
   104  103  104 1   
   105  103  106 1   
   106  103  111 1   
   107  104  105 2   
   108  104  114 1   
   109  106  107 1   
   110  106  112 1   
   111  106  113 1   
   112  107  108 1   
   113  107  109 1   
   114  114  115 1   
   115  114  125 1   
   116  115  116 1   
   117  115  118 1   
   118  115  126 1   
   119  116  117 2   
   120  116  134 1   
   121  118  119 1   
   122  118  127 1   
   123  118  128 1   
   124  119  120 ar  
   125  119  121 ar  
   126  120  122 ar  
   127  120  129 1   
   128  121  123 ar  
   129  121  130 1   
   130  122  124 ar  
   131  122  131 1   
   132  123  124 ar  
   133  123  132 1   
   134  124  133 1   
   135  134  135 1   
   136  134  140 1   
   137  135  136 1   
   138  135  138 1   
   139  135  141 1   
   140  136  137 2   
   141  136  148 1   
   142  138  139 1   
   143  138  142 1   
   144  138  143 1   
   145  139  140 1   
   146  139  144 1   
   147  139  145 1   
   148  140  146 1   
   149  140  147 1   
   150  148  149 1   
   151  148  157 1   
   152  149  150 1   
   153  149  152 1   
   154  149  158 1   
   155  150  151 2   
   156  150  163 1   
   157  152  153 1   
   158  152  159 1   
   159  152  160 1   
   160  153  154 1   
   161  153  161 1   
   162  153  162 1   
   163  154  155 1   
   164  154  156 1   
   165  163  164 1   
   166  163  168 1   
   167  164  165 1   
   168  164  166 1   
   169  164  167 1   
   170  170  172 1   
   171  170  174 1   
   172  171  173 1   
   173  171  175 1   
   174  176  177 1   
   175  176  178 1   
@<TRIPOS>SUBSTRUCTURE
     1 MOL         1 TEMP              0 ****  ****    0 ROOT
