@<TRIPOS>MOLECULE
MOL
  185   180     1     0     0
SMALL
resp


@<TRIPOS>ATOM
      1 C1         -5.5540    1.1230   -3.9550 c3        1 MOL     -0.443945
      2 C2         -6.2270    1.0450   -2.5580 c         1 MOL      0.554948
      3 O1         -5.6010    0.7050   -1.5230 o         1 MOL     -0.506902
      4 H1         -6.1450    1.7650   -4.6060 hc        1 MOL      0.121314
      5 H2         -4.5500    1.5340   -3.8520 hc        1 MOL      0.121314
      6 H3         -5.4960    0.1240   -4.3870 hc        1 MOL      0.121314
      7 N1         -7.5240    1.3320   -2.5010 n         1 MOL     -0.535345
      8 C3         -8.3940    1.2170   -1.3380 c3        1 MOL      0.359462
      9 C4         -8.3500   -0.1520   -0.5290 c         1 MOL      0.237345
     10 O2         -8.6940   -0.1650    0.6800 o         1 MOL     -0.447257
     11 C5         -8.3310    2.4130   -0.3750 c3        1 MOL     -0.201497
     12 C6         -9.6160    2.8560    0.3250 c         1 MOL      0.682776
     13 O3        -10.7040    2.4010   -0.0890 o         1 MOL     -0.703005
     14 O4         -9.4590    3.6000    1.3260 o         1 MOL     -0.703005
     15 H4         -8.0540    1.3390   -3.3610 hn        1 MOL      0.308639
     16 H5         -9.3680    1.2810   -1.8080 h1        1 MOL     -0.035072
     17 H6         -8.0150    3.2820   -0.9500 hc        1 MOL      0.037487
     18 H7         -7.5600    2.1600    0.3490 hc        1 MOL      0.037487
     19 N2         -7.7900   -1.2790   -0.9770 n         1 MOL     -0.271232
     20 C7         -7.4650   -2.5620   -0.2630 c3        1 MOL      0.113517
     21 C8         -5.9720   -2.9380   -0.2120 c         1 MOL      0.670278
     22 O5         -5.6630   -4.1220   -0.3010 o         1 MOL     -0.580888
     23 C9         -8.3790   -3.6560   -0.8010 c3        1 MOL     -0.134373
     24 C10        -9.8460   -3.2480   -0.8260 c3        1 MOL      0.239960
     25 C11       -10.4760   -3.1350    0.5880 c3        1 MOL     -0.016630
     26 C12       -11.9670   -2.7790    0.3530 c3        1 MOL      0.116925
     27 N3        -12.7470   -2.7400    1.5900 n4        1 MOL     -0.426879
     28 H8         -7.4900   -1.2230   -1.9400 hn        1 MOL      0.184159
     29 H9         -7.7380   -2.3780    0.7810 h1        1 MOL      0.045954
     30 H10        -8.1670   -4.5620   -0.2200 hc        1 MOL      0.028764
     31 H11        -8.1120   -3.9340   -1.8160 hc        1 MOL      0.028764
     32 H12       -10.4820   -4.0320   -1.2440 hc        1 MOL     -0.068346
     33 H13       -10.0980   -2.4110   -1.4650 hc        1 MOL     -0.068346
     34 H14       -10.0330   -2.3360    1.1740 hc        1 MOL      0.012097
     35 H15       -10.3400   -4.1230    1.0330 hc        1 MOL      0.012097
     36 H16       -12.4330   -3.5020   -0.3160 hx        1 MOL      0.063574
     37 H17       -12.0460   -1.7930   -0.1010 hx        1 MOL      0.063574
     38 H18       -13.7070   -2.7630    1.2880 hn        1 MOL      0.342491
     39 H19       -12.5490   -3.5580    2.1470 hn        1 MOL      0.342491
     40 H20       -12.5340   -1.9220    2.1430 hn        1 MOL      0.342491
     41 N4         -5.1320   -1.9140    0.0580 n         1 MOL     -0.582815
     42 C13        -3.6830   -2.0570    0.1930 c3        1 MOL     -0.162746
     43 C14        -3.2430   -2.4630    1.6000 c         1 MOL      0.524605
     44 O6         -3.7580   -1.9420    2.5760 o         1 MOL     -0.533439
     45 C15        -3.0320   -0.6780   -0.2410 c3        1 MOL      0.047509
     46 C16        -1.5230   -0.8570   -0.4920 c         1 MOL      0.575553
     47 O7         -1.0210   -0.8210   -1.6010 o         1 MOL     -0.723746
     48 O8         -0.8030   -1.1590    0.4900 o         1 MOL     -0.723746
     49 H21        -5.6260   -1.0500    0.2190 hn        1 MOL      0.342044
     50 H22        -3.4680   -2.8100   -0.5590 h1        1 MOL      0.111269
     51 H23        -3.3270    0.0860    0.4810 hc        1 MOL      0.093349
     52 H24        -3.3770   -0.2630   -1.1800 hc        1 MOL      0.093349
     53 N5         -2.3160   -3.3790    1.7380 n         1 MOL     -0.087443
     54 C17        -1.8530   -3.8710    3.0170 c3        1 MOL     -0.291362
     55 C18        -0.8670   -3.0600    3.7490 c         1 MOL      0.674672
     56 O9         -0.4620   -3.4490    4.8400 o         1 MOL     -0.586478
     57 H25        -2.0280   -3.8340    0.8860 hn        1 MOL      0.145107
     58 H26        -1.4140   -4.8560    2.8370 h1        1 MOL      0.121865
     59 H27        -2.7560   -4.0220    3.6120 h1        1 MOL      0.121865
     60 N6         -0.4930   -1.8880    3.2610 n         1 MOL     -0.397025
     61 C19         0.1210   -0.8170    4.0610 c3        1 MOL     -0.083058
     62 C20        -0.3300    0.6290    3.7400 c         1 MOL      0.407021
     63 O10         0.2860    1.5520    4.2880 o         1 MOL     -0.522271
     64 C21         1.6940   -0.9460    3.9350 c3        1 MOL     -0.161402
     65 C22         2.1290   -0.7360    2.5310 c         1 MOL      0.772189
     66 N7          2.7720    0.3870    2.3160 n         1 MOL     -0.795205
     67 O11         1.8700   -1.3950    1.6390 o         1 MOL     -0.710010
     68 H28        -0.4900   -1.7710    2.2620 hn        1 MOL      0.317366
     69 H29        -0.1880   -0.9160    5.1000 h1        1 MOL      0.147076
     70 H30         2.1430   -1.8550    4.3530 hc        1 MOL      0.074293
     71 H31         2.2300   -0.2280    4.5540 hc        1 MOL      0.074293
     72 H32         3.0700    0.8840    3.1340 hn        1 MOL      0.320844
     73 H33         3.2130    0.6960    1.4550 hn        1 MOL      0.320844
     74 N8         -1.3930    0.7970    2.9900 n         1 MOL      0.002875
     75 C23        -2.0450    2.1400    2.7710 c3        1 MOL     -0.490835
     76 C24        -1.4910    2.9710    1.6730 c         1 MOL      0.691822
     77 O12        -1.5550    4.2230    1.7880 o         1 MOL     -0.556028
     78 H34        -1.9640   -0.0070    2.7590 hn        1 MOL      0.090268
     79 H35        -1.9140    2.6480    3.7320 h1        1 MOL      0.198414
     80 H36        -3.0790    1.9780    2.4850 h1        1 MOL      0.198414
     81 N9         -0.8300    2.3130    0.7200 n         1 MOL     -0.459798
     82 C25        -0.1770    2.9710   -0.3930 c3        1 MOL      0.123597
     83 C26         1.2160    2.3920   -0.5840 c         1 MOL      0.504682
     84 O13         1.4360    1.2070   -0.3950 o         1 MOL     -0.429990
     85 C27        -0.9940    2.7340   -1.6660 c3        1 MOL      0.004991
     86 C28        -2.2760    3.5550   -1.5830 ca        1 MOL      0.046139
     87 C29        -2.3870    4.6950   -2.3830 ca        1 MOL     -0.157157
     88 C30        -3.3620    3.1320   -0.7750 ca        1 MOL     -0.157157
     89 C31        -3.5530    5.4530   -2.3900 ca        1 MOL     -0.243862
     90 C32        -4.5570    3.8700   -0.8350 ca        1 MOL     -0.243862
     91 C33        -4.7060    5.0410   -1.6120 ca        1 MOL      0.374256
     92 O14        -5.8880    5.7270   -1.6160 oh        1 MOL     -0.539610
     93 H37        -0.8150    1.3020    0.7260 hn        1 MOL      0.205663
     94 H38        -0.1300    4.0510   -0.2940 h1        1 MOL      0.042401
     95 H39        -1.2190    1.6720   -1.7190 hc        1 MOL     -0.005153
     96 H40        -0.4420    3.0540   -2.5490 hc        1 MOL     -0.005153
     97 H41        -1.5250    5.0280   -2.9410 ha        1 MOL      0.105409
     98 H42        -3.3620    2.1990   -0.2350 ha        1 MOL      0.105409
     99 H43        -3.5400    6.3940   -2.9240 ha        1 MOL      0.140479
    100 H44        -5.3830    3.4120   -0.3180 ha        1 MOL      0.140479
    101 H45        -6.4910    5.4210   -0.9270 ho        1 MOL      0.416099
    102 N10         2.1910    3.1680   -0.9980 n         1 MOL     -0.570784
    103 C34         3.6060    2.8110   -1.2970 c3        1 MOL      0.034395
    104 C35         4.3640    2.5220   -0.0180 c         1 MOL      0.705522
    105 O15         4.7710    1.4160    0.2140 o         1 MOL     -0.506315
    106 C36         4.3150    3.7260   -2.2580 c3        1 MOL      0.174419
    107 C37         3.5630    3.9920   -3.5870 c3        1 MOL     -0.164047
    108 C38         5.7760    3.1650   -2.4970 c3        1 MOL     -0.682863
    109 C39         3.4540    2.7360   -4.5320 c3        1 MOL      0.019972
    110 H46         1.9440    4.1270   -1.2390 hn        1 MOL      0.297920
    111 H47         3.5850    1.8350   -1.7750 h1        1 MOL     -0.003816
    112 H48         4.4570    4.6390   -1.6770 hc        1 MOL     -0.038910
    113 H49         4.1530    4.7180   -4.1410 hc        1 MOL      0.067342
    114 H50         2.5220    4.2890   -3.4710 hc        1 MOL      0.067342
    115 H51         6.3530    3.1290   -1.5730 hc        1 MOL      0.191211
    116 H52         5.6940    2.1360   -2.8440 hc        1 MOL      0.191211
    117 H53         6.2120    3.7320   -3.3140 hc        1 MOL      0.191211
    118 H54         4.3960    2.2040   -4.5740 hc        1 MOL      0.015734
    119 H55         2.7450    1.9870   -4.1800 hc        1 MOL      0.015734
    120 H56         3.0800    2.9580   -5.5300 hc        1 MOL      0.015734
    121 N11         4.5690    3.5100    0.8550 n         1 MOL     -0.487754
    122 C40         5.2080    3.3420    2.2190 c3        1 MOL     -0.096225
    123 C41         6.5600    2.6070    2.1200 c         1 MOL      0.153249
    124 O16         6.9320    1.8450    3.0840 o         1 MOL     -0.431046
    125 C42         5.3830    4.7090    2.9130 c3        1 MOL      0.277956
    126 O17         4.0940    5.3660    3.0110 oh        1 MOL     -0.559819
    127 H57         4.2900    4.4610    0.6790 hn        1 MOL      0.300603
    128 H58         4.5470    2.7530    2.8570 h1        1 MOL      0.182675
    129 H59         5.9740    5.4080    2.3150 h1        1 MOL      0.031347
    130 H60         5.7990    4.6880    3.9160 h1        1 MOL      0.031347
    131 H61         3.8520    5.5850    2.1120 ho        1 MOL      0.359865
    132 N12         7.2610    2.7340    1.0250 n         1 MOL     -0.011091
    133 C43         8.6570    2.2350    0.8790 c3        1 MOL      0.124342
    134 C44         8.7290    0.6720    1.0740 c         1 MOL      0.499829
    135 O18         9.6500    0.1690    1.6780 o         1 MOL     -0.497725
    136 C45         9.6620    3.0610    1.7570 c3        1 MOL     -0.314969
    137 H62         6.9620    3.4300    0.3590 hn        1 MOL      0.159734
    138 H63         8.9900    2.4000   -0.1410 h1        1 MOL      0.034114
    139 H64        10.7060    2.8050    1.6110 hc        1 MOL      0.093824
    140 H65         9.4920    4.1000    1.4480 hc        1 MOL      0.093824
    141 H66         9.3220    3.0100    2.7860 hc        1 MOL      0.093824
    142 N13         7.6510   -0.0240    0.5830 n         1 MOL     -0.479545
    143 C46         7.3570   -1.4360    0.8030 c3        1 MOL      0.364776
    144 C47         6.9880   -2.2120   -0.4250 c         1 MOL      0.368890
    145 O19         6.4910   -1.6930   -1.4250 o         1 MOL     -0.464060
    146 C48         6.2180   -1.5340    1.8470 c3        1 MOL      0.004006
    147 H67         6.9110    0.5220    0.1630 hn        1 MOL      0.100935
    148 H68         8.2370   -1.8510    1.2800 h1        1 MOL     -0.012951
    149 H69         5.8470   -0.5880    2.2340 hc        1 MOL      0.014653
    150 H70         5.4250   -2.1850    1.4820 hc        1 MOL      0.014653
    151 H71         6.5290   -2.0790    2.7480 hc        1 MOL      0.014653
    152 N14         7.2440   -3.4780   -0.3820 n         1 MOL     -0.467690
    153 C49         6.8090   -4.4220   -1.4300 c3        1 MOL     -0.149964
    154 C50         7.5170   -4.1370   -2.7850 c         1 MOL      0.423179
    155 O20         7.0390   -4.6220   -3.8600 o         1 MOL     -0.510710
    156 C51         5.2710   -4.5120   -1.5660 c3        1 MOL      0.195377
    157 C52         4.5260   -5.0250   -0.3490 c3        1 MOL     -0.127028
    158 C53         3.0320   -4.7270   -0.4040 c         1 MOL      0.752257
    159 O21         2.1470   -5.5860   -0.6050 o         1 MOL     -0.700235
    160 O22         2.7900   -3.5040   -0.1620 o         1 MOL     -0.700235
    161 H72         7.5780   -3.9020    0.4640 hn        1 MOL      0.322505
    162 H73         7.0760   -5.4290   -1.1210 h1        1 MOL      0.120999
    163 H74         4.9150   -5.2250   -2.3150 hc        1 MOL     -0.007891
    164 H75         4.9200   -3.5210   -1.8620 hc        1 MOL     -0.007891
    165 H76         4.9810   -4.6800    0.5820 hc        1 MOL     -0.004685
    166 H77         4.5730   -6.1100   -0.3950 hc        1 MOL     -0.004685
    167 N15         8.6020   -3.3880   -2.7650 n         1 MOL     -0.256033
    168 C54         9.2360   -2.6930   -3.9190 c3        1 MOL     -0.175736
    169 H78         8.5470   -1.9480   -4.3160 h1        1 MOL      0.103666
    170 H79        10.1510   -2.2020   -3.5890 h1        1 MOL      0.103666
    171 H80         9.4720   -3.4190   -4.6960 h1        1 MOL      0.103666
    172 H81         8.8660   -3.1320   -1.8190 hn        1 MOL      0.234427
    173 Ca1         1.4310   -1.4590   -0.9410 Ca        1 MOL      1.761517
    174 O23        -0.2920   -3.9760   -0.7990 oh        1 MOL     -0.840359
    175 H82        -1.1040   -4.2390   -1.2300 ho        1 MOL      0.411797
    176 H83         0.2450   -4.7660   -0.8010 ho        1 MOL      0.411797
    177 O24         1.6980    0.1410   -3.1690 oh        1 MOL     -0.840359
    178 H84         1.3280    1.0130   -3.2920 ho        1 MOL      0.411797
    179 H85         1.4240   -0.3490   -3.9350 ho        1 MOL      0.411797
    180 O25         1.4570   -2.8500   -3.1220 oh        1 MOL     -0.840359
    181 H86         1.7790   -3.7200   -3.3290 ho        1 MOL      0.411797
    182 H87         0.8590   -2.6280   -3.8350 ho        1 MOL      0.411797
    183 O26         4.0480   -0.7850   -1.3000 oh        1 MOL     -0.840359
    184 H88         4.3450    0.0510   -0.9230 ho        1 MOL      0.411797
    185 H89         4.8640   -1.2490   -1.4960 ho        1 MOL      0.411797
@<TRIPOS>BOND
     1    1    2 1   
     2    1    4 1   
     3    1    5 1   
     4    1    6 1   
     5    2    3 2   
     6    2    7 1   
     7    7    8 1   
     8    7   15 1   
     9    8    9 1   
    10    8   11 1   
    11    8   16 1   
    12    9   10 2   
    13    9   19 1   
    14   11   12 1   
    15   11   17 1   
    16   11   18 1   
    17   12   13 1   
    18   12   14 1   
    19   19   20 1   
    20   19   28 1   
    21   20   21 1   
    22   20   23 1   
    23   20   29 1   
    24   21   22 2   
    25   21   41 1   
    26   23   24 1   
    27   23   30 1   
    28   23   31 1   
    29   24   25 1   
    30   24   32 1   
    31   24   33 1   
    32   25   26 1   
    33   25   34 1   
    34   25   35 1   
    35   26   27 1   
    36   26   36 1   
    37   26   37 1   
    38   27   38 1   
    39   27   39 1   
    40   27   40 1   
    41   41   42 1   
    42   41   49 1   
    43   42   43 1   
    44   42   45 1   
    45   42   50 1   
    46   43   44 2   
    47   43   53 1   
    48   45   46 1   
    49   45   51 1   
    50   45   52 1   
    51   46   47 1   
    52   46   48 1   
    53   53   54 1   
    54   53   57 1   
    55   54   55 1   
    56   54   58 1   
    57   54   59 1   
    58   55   56 2   
    59   55   60 1   
    60   60   61 1   
    61   60   68 1   
    62   61   62 1   
    63   61   64 1   
    64   61   69 1   
    65   62   63 2   
    66   62   74 1   
    67   64   65 1   
    68   64   70 1   
    69   64   71 1   
    70   65   66 1   
    71   65   67 2   
    72   66   72 1   
    73   66   73 1   
    74   74   75 1   
    75   74   78 1   
    76   75   76 1   
    77   75   79 1   
    78   75   80 1   
    79   76   77 2   
    80   76   81 1   
    81   81   82 1   
    82   81   93 1   
    83   82   83 1   
    84   82   85 1   
    85   82   94 1   
    86   83   84 2   
    87   83  102 1   
    88   85   86 1   
    89   85   95 1   
    90   85   96 1   
    91   86   87 ar  
    92   86   88 ar  
    93   87   89 ar  
    94   87   97 1   
    95   88   90 ar  
    96   88   98 1   
    97   89   91 ar  
    98   89   99 1   
    99   90   91 ar  
   100   90  100 1   
   101   91   92 1   
   102   92  101 1   
   103  102  103 1   
   104  102  110 1   
   105  103  104 1   
   106  103  106 1   
   107  103  111 1   
   108  104  105 2   
   109  104  121 1   
   110  106  107 1   
   111  106  108 1   
   112  106  112 1   
   113  107  109 1   
   114  107  113 1   
   115  107  114 1   
   116  108  115 1   
   117  108  116 1   
   118  108  117 1   
   119  109  118 1   
   120  109  119 1   
   121  109  120 1   
   122  121  122 1   
   123  121  127 1   
   124  122  123 1   
   125  122  125 1   
   126  122  128 1   
   127  123  124 2   
   128  123  132 1   
   129  125  126 1   
   130  125  129 1   
   131  125  130 1   
   132  126  131 1   
   133  132  133 1   
   134  132  137 1   
   135  133  134 1   
   136  133  136 1   
   137  133  138 1   
   138  134  135 2   
   139  134  142 1   
   140  136  139 1   
   141  136  140 1   
   142  136  141 1   
   143  142  143 1   
   144  142  147 1   
   145  143  144 1   
   146  143  146 1   
   147  143  148 1   
   148  144  145 2   
   149  144  152 1   
   150  146  149 1   
   151  146  150 1   
   152  146  151 1   
   153  152  153 1   
   154  152  161 1   
   155  153  154 1   
   156  153  156 1   
   157  153  162 1   
   158  154  155 2   
   159  154  167 1   
   160  156  157 1   
   161  156  163 1   
   162  156  164 1   
   163  157  158 1   
   164  157  165 1   
   165  157  166 1   
   166  158  159 1   
   167  158  160 1   
   168  167  168 1   
   169  167  172 1   
   170  168  169 1   
   171  168  170 1   
   172  168  171 1   
   173  174  175 1   
   174  174  176 1   
   175  177  178 1   
   176  177  179 1   
   177  180  181 1   
   178  180  182 1   
   179  183  184 1   
   180  183  185 1   
@<TRIPOS>SUBSTRUCTURE
     1 MOL         1 TEMP              0 ****  ****    0 ROOT
