@<TRIPOS>MOLECULE
MOL
  192   187     1     0     0
SMALL
resp


@<TRIPOS>ATOM
      1 C1          4.7950    4.2030   -3.2250 c3        1 MOL     -0.502528
      2 C2          5.5650    3.1570   -2.3310 c         1 MOL      0.830895
      3 O1          5.0900    2.7870   -1.2830 o         1 MOL     -0.728986
      4 H1          3.7580    3.8880   -3.3400 hc        1 MOL      0.126136
      5 H2          4.8260    5.1830   -2.7480 hc        1 MOL      0.126136
      6 H3          5.2670    4.2610   -4.2060 hc        1 MOL      0.126136
      7 N1          6.7170    2.6500   -2.7430 n         1 MOL     -0.613687
      8 C3          7.3320    1.4250   -2.1750 c3        1 MOL      0.171000
      9 C4          6.2770    0.3450   -1.8220 c         1 MOL      0.199291
     10 O2          5.7240    0.1800   -0.7540 o         1 MOL     -0.407783
     11 C5          8.2930    1.7040   -0.9600 c3        1 MOL     -0.005965
     12 C6          7.7400    2.5950    0.2240 c         1 MOL      0.685220
     13 O3          7.0400    1.9830    1.1080 o         1 MOL     -0.718334
     14 O4          7.9630    3.8500    0.2940 o         1 MOL     -0.718334
     15 H4          7.0970    3.0960   -3.5650 hn        1 MOL      0.316361
     16 H5          7.8860    1.0160   -3.0160 h1        1 MOL      0.048561
     17 H6          9.0920    2.2740   -1.4300 hc        1 MOL     -0.010024
     18 H7          8.6380    0.7790   -0.4930 hc        1 MOL     -0.010024
     19 N2          5.9840   -0.4240   -2.8970 n         1 MOL     -0.361386
     20 C7          5.1880   -1.6570   -2.9790 c3        1 MOL      0.075894
     21 C8          5.8250   -2.7920   -2.1950 c         1 MOL      0.361978
     22 O5          6.0810   -3.8270   -2.7840 o         1 MOL     -0.570011
     23 C9          3.6920   -1.4580   -2.6050 c3        1 MOL      0.378068
     24 C10         2.9090   -2.7750   -2.8820 c3        1 MOL     -0.011624
     25 C11         3.1350   -0.2650   -3.4530 c3        1 MOL     -0.487669
     26 C12         2.6010   -2.9750   -4.3680 c3        1 MOL     -0.172520
     27 H8          6.4650   -0.1950   -3.7580 hn        1 MOL      0.265162
     28 H9          5.2130   -1.9740   -4.0290 h1        1 MOL      0.039306
     29 H10         3.6650   -1.2290   -1.5480 hc        1 MOL     -0.171659
     30 H11         1.9960   -2.7620   -2.2900 hc        1 MOL      0.038376
     31 H12         3.4260   -3.6530   -2.5000 hc        1 MOL      0.038376
     32 H13         3.5010    0.7020   -3.1180 hc        1 MOL      0.109567
     33 H14         3.4180   -0.4270   -4.4940 hc        1 MOL      0.109567
     34 H15         2.0500   -0.2660   -3.3720 hc        1 MOL      0.109567
     35 H16         2.1610   -3.9560   -4.4930 hc        1 MOL      0.022853
     36 H17         1.8810   -2.2910   -4.8200 hc        1 MOL      0.022853
     37 H18         3.5010   -2.9840   -4.9780 hc        1 MOL      0.022853
     38 N3          6.0520   -2.6200   -0.8870 n         1 MOL     -0.018473
     39 C13         6.8080   -3.5310   -0.0000 c3        1 MOL      0.010216
     40 C14         6.0310   -4.7060    0.6250 c         1 MOL      0.577086
     41 O6          6.6940   -5.7000    0.9550 o         1 MOL     -0.577793
     42 C15         7.5260   -2.6520    1.0420 c3        1 MOL     -0.120734
     43 C16         8.7150   -1.9170    0.5260 c         1 MOL      0.713597
     44 O7          8.9930   -2.0630   -0.7000 o         1 MOL     -0.725508
     45 O8          9.3370   -1.1800    1.3010 o         1 MOL     -0.725508
     46 H19         5.9290   -1.6890   -0.5250 hn        1 MOL      0.179251
     47 H20         7.5480   -4.0930   -0.5690 h1        1 MOL      0.054434
     48 H21         7.9730   -3.3150    1.7840 hc        1 MOL      0.030886
     49 H22         6.8750   -1.8990    1.4990 hc        1 MOL      0.030886
     50 N4          4.7010   -4.6690    0.8660 n         1 MOL     -0.643094
     51 C17         3.7750   -3.4990    0.9500 c3        1 MOL      0.201103
     52 C18         2.3870   -3.9860    1.4330 c         1 MOL      0.476101
     53 O9          1.9480   -5.0330    1.1020 o         1 MOL     -0.545015
     54 H23         4.3260   -5.4560    1.3730 hn        1 MOL      0.353156
     55 H24         3.7220   -2.9570    0.0110 h1        1 MOL     -0.029553
     56 H25         4.1940   -2.6800    1.5320 h1        1 MOL     -0.029553
     57 N5          1.7410   -3.3140    2.4220 n         1 MOL     -0.308293
     58 C19         1.8730   -1.9050    2.8210 c3        1 MOL      0.183094
     59 C20         2.0420   -1.0330    1.5080 c         1 MOL      0.513144
     60 O10         3.0980   -0.6020    1.1810 o         1 MOL     -0.480053
     61 C21         3.0140   -1.6510    3.9270 c3        1 MOL     -0.483876
     62 C22         3.0730   -2.6040    5.2070 c         1 MOL      0.748471
     63 O11         3.6670   -3.7020    5.2410 o         1 MOL     -0.728792
     64 O12         2.3700   -2.3390    6.1910 o         1 MOL     -0.728792
     65 H26         0.9280   -3.7740    2.8180 hn        1 MOL      0.248787
     66 H27         1.0170   -1.5180    3.3570 h1        1 MOL      0.030117
     67 H28         2.7770   -0.6880    4.3850 hc        1 MOL      0.102976
     68 H29         3.9930   -1.6620    3.4610 hc        1 MOL      0.102976
     69 N6          0.9830   -0.8670    0.7130 n         1 MOL     -0.388678
     70 C23        -0.3650   -1.2410    1.0140 c3        1 MOL     -0.152160
     71 C24        -0.7400   -2.5290    0.2500 c         1 MOL      0.689203
     72 O13        -0.0620   -2.8870   -0.7000 o         1 MOL     -0.516439
     73 H30         1.2250   -0.3060   -0.0970 hn        1 MOL      0.246292
     74 H31        -1.0140   -0.5010    0.5550 h1        1 MOL      0.077866
     75 H32        -0.4710   -1.4150    2.0880 h1        1 MOL      0.077866
     76 N7         -1.8200   -3.1510    0.6640 n         1 MOL     -0.557434
     77 C25        -2.3060   -4.3110   -0.0150 c3        1 MOL     -0.145719
     78 C26        -3.1300   -4.0570   -1.2700 c         1 MOL      0.424449
     79 O14        -3.6580   -5.0340   -1.8530 o         1 MOL     -0.552071
     80 C27        -2.9190   -5.3770    0.8940 c3        1 MOL      0.218407
     81 C28        -3.9880   -4.7700    1.7890 c3        1 MOL     -0.279467
     82 C29        -5.2310   -4.4030    0.9610 c         1 MOL      0.537210
     83 N8         -6.3180   -5.2540    0.7990 n         1 MOL     -0.768783
     84 O15        -5.2970   -3.2640    0.4720 o         1 MOL     -0.506506
     85 H33        -2.3870   -2.8920    1.4560 hn        1 MOL      0.304766
     86 H34        -1.4450   -4.8660   -0.3960 h1        1 MOL      0.161331
     87 H35        -2.1610   -5.7390    1.5910 hc        1 MOL      0.001948
     88 H36        -3.1550   -6.3170    0.4070 hc        1 MOL      0.001948
     89 H37        -3.5860   -3.9600    2.3920 hc        1 MOL      0.090113
     90 H38        -4.3390   -5.5190    2.5000 hc        1 MOL      0.090113
     91 H39        -6.2550   -6.1820    1.1920 hn        1 MOL      0.375652
     92 H40        -7.0200   -4.8660    0.1850 hn        1 MOL      0.375652
     93 N9         -3.2980   -2.8400   -1.8310 n         1 MOL     -0.088471
     94 C30        -3.8320   -2.4000   -3.0950 c3        1 MOL     -0.030295
     95 C31        -5.2480   -1.7770   -2.8700 c         1 MOL      0.331666
     96 O16        -5.8070   -1.3460   -3.9020 o         1 MOL     -0.530402
     97 C32        -2.8200   -1.4040   -3.8280 c3        1 MOL      0.028000
     98 C33        -1.4490   -2.0670   -4.2640 c3        1 MOL     -0.117063
     99 C34        -2.3860   -0.1980   -2.9890 c3        1 MOL     -0.117063
    100 H41        -2.9580   -2.0880   -1.2450 hn        1 MOL      0.115342
    101 H42        -4.0000   -3.2900   -3.7060 h1        1 MOL      0.107863
    102 H43        -3.2890   -1.0910   -4.7590 hc        1 MOL      0.031818
    103 H44        -0.7050   -1.4010   -4.6960 hc        1 MOL      0.034741
    104 H45        -0.9800   -2.5450   -3.4050 hc        1 MOL      0.034741
    105 H46        -1.5440   -2.8560   -5.0110 hc        1 MOL      0.034741
    106 H47        -1.6660   -0.5730   -2.2610 hc        1 MOL      0.034741
    107 H48        -1.8010    0.5340   -3.5500 hc        1 MOL      0.034741
    108 H49        -3.2310    0.3290   -2.5520 hc        1 MOL      0.034741
    109 N10        -5.8760   -1.5910   -1.6760 n         1 MOL     -0.138133
    110 C35        -7.2280   -0.9050   -1.6380 c3        1 MOL      0.068855
    111 C36        -7.1860    0.6260   -1.1600 c         1 MOL      0.604746
    112 O17        -8.2010    1.2450   -1.1870 o         1 MOL     -0.553866
    113 C37        -8.2360   -1.6650   -0.9110 c3        1 MOL     -0.090824
    114 C38        -8.4980   -3.0510   -1.5760 c         1 MOL      0.541541
    115 N11        -8.6710   -3.1840   -2.8820 n         1 MOL     -0.752602
    116 O18        -8.5600   -3.9910   -0.7660 o         1 MOL     -0.548855
    117 H50        -5.5180   -1.8880   -0.7840 hn        1 MOL      0.178188
    118 H51        -7.6110   -0.7480   -2.6470 h1        1 MOL     -0.003051
    119 H52        -9.2100   -1.1660   -0.8750 hc        1 MOL      0.062487
    120 H53        -7.8440   -1.9470    0.0610 hc        1 MOL      0.062487
    121 H54        -8.6650   -2.3340   -3.4260 hn        1 MOL      0.376241
    122 H55        -8.8340   -4.0890   -3.3090 hn        1 MOL      0.376241
    123 N12        -6.0330    1.0660   -0.5550 n         1 MOL     -0.633106
    124 C39        -5.9690    2.2680    0.2930 c3        1 MOL      0.562126
    125 C40        -4.7430    3.1400   -0.0890 c         1 MOL      0.204256
    126 O19        -3.7200    2.5160   -0.4520 o         1 MOL     -0.433018
    127 C41        -5.9670    1.8690    1.7820 c3        1 MOL     -0.155696
    128 C42        -7.0180    0.9170    2.2040 ca        1 MOL     -0.026718
    129 C43        -6.8530   -0.5260    2.4290 ca        1 MOL     -0.120923
    130 C44        -8.3530    1.3500    2.2010 ca        1 MOL     -0.120923
    131 C45        -7.9280   -1.3150    2.6600 ca        1 MOL     -0.210082
    132 C46        -9.4730    0.5280    2.4020 ca        1 MOL     -0.210082
    133 C47        -9.2710   -0.8350    2.6150 ca        1 MOL      0.272318
    134 O20       -10.3630   -1.6730    2.6240 oh        1 MOL     -0.523878
    135 H56        -5.3850    0.2790   -0.5030 hn        1 MOL      0.250707
    136 H57        -6.8500    2.8830    0.1210 h1        1 MOL     -0.048414
    137 H58        -5.9990    2.7970    2.3520 hc        1 MOL      0.078684
    138 H59        -5.0690    1.3080    2.0370 hc        1 MOL      0.078684
    139 H60        -5.8870   -1.0090    2.4410 ha        1 MOL      0.111088
    140 H61        -8.5090    2.3930    1.9570 ha        1 MOL      0.111088
    141 H62        -7.7700   -2.3600    2.8570 ha        1 MOL      0.132186
    142 H63       -10.4970    0.8730    2.4160 ha        1 MOL      0.132186
    143 H64       -10.2060   -2.6180    2.5820 ho        1 MOL      0.387352
    144 N13        -4.8190    4.4120    0.3460 n         1 MOL     -0.514756
    145 C48        -3.7260    5.2610    0.8690 c3        1 MOL      0.430534
    146 C49        -2.5110    5.4920   -0.0270 c         1 MOL      0.173769
    147 O21        -1.9050    6.5950   -0.1460 o         1 MOL     -0.484129
    148 C50        -3.3550    4.7370    2.2360 c3        1 MOL      0.008636
    149 C51        -2.9430    5.8960    3.1490 c3        1 MOL     -0.109008
    150 C52        -2.1360    5.3630    4.3050 c         1 MOL      0.716817
    151 O22        -2.6670    4.9420    5.3730 o         1 MOL     -0.736235
    152 O23        -0.9050    5.5490    4.2670 o         1 MOL     -0.736235
    153 H65        -5.7570    4.7520    0.4990 hn        1 MOL      0.294934
    154 H66        -4.1590    6.2550    0.9770 h1        1 MOL     -0.035179
    155 H67        -2.6700    3.8980    2.1140 hc        1 MOL     -0.032370
    156 H68        -4.2200    4.2840    2.7160 hc        1 MOL     -0.032370
    157 H69        -3.8130    6.4240    3.5200 hc        1 MOL     -0.007257
    158 H70        -2.3710    6.6420    2.6120 hc        1 MOL     -0.007257
    159 N14        -2.0440    4.4780   -0.8220 n         1 MOL     -0.002573
    160 C53        -0.8420    4.5420   -1.6690 c3        1 MOL     -0.225312
    161 C54        -1.1880    5.3280   -2.9680 c         1 MOL      0.549726
    162 O24        -0.2590    5.8820   -3.5430 o         1 MOL     -0.561796
    163 C55        -0.2990    3.1470   -2.0290 c3        1 MOL     -0.124528
    164 C56         0.0720    2.3080   -0.7820 c3        1 MOL     -0.056688
    165 C57         1.3710    2.7630   -0.0510 c         1 MOL      0.704085
    166 O25         1.4360    3.8360    0.6010 o         1 MOL     -0.634062
    167 O26         2.3270    2.0430   -0.0560 o         1 MOL     -0.634062
    168 H71        -2.4250    3.5470   -0.7110 hn        1 MOL      0.153224
    169 H72        -0.0090    5.1130   -1.2580 h1        1 MOL      0.172308
    170 H73         0.5740    3.2760   -2.6650 hc        1 MOL      0.052851
    171 H74        -1.0990    2.5830   -2.5250 hc        1 MOL      0.052851
    172 H75         0.1590    1.2940   -1.1790 hc        1 MOL      0.026186
    173 H76        -0.8050    2.2010   -0.1500 hc        1 MOL      0.026186
    174 N15        -2.4260    5.5590   -3.2580 n         1 MOL     -0.242381
    175 C58        -2.9980    6.3600   -4.3920 c3        1 MOL     -0.323119
    176 H77        -4.0620    6.1430   -4.4890 h1        1 MOL      0.122691
    177 H78        -2.8610    7.4230   -4.1930 h1        1 MOL      0.122691
    178 H79        -2.4880    6.0950   -5.3190 h1        1 MOL      0.122691
    179 H80        -3.1400    5.2600   -2.6050 hn        1 MOL      0.204520
    180 Ca1         4.5130    1.7380    1.1740 Ca        1 MOL      1.719147
    181 O27         3.7920    4.5790    1.2900 oh        1 MOL     -0.766707
    182 H81         2.8770    4.5030    1.0160 ho        1 MOL      0.375093
    183 H82         4.1580    5.2510    0.7160 ho        1 MOL      0.375093
    184 O28         5.4810    0.3410    3.2480 oh        1 MOL     -0.766707
    185 H83         6.2230   -0.1740    2.9350 ho        1 MOL      0.375093
    186 H84         5.5790    0.3630    4.2050 ho        1 MOL      0.375093
    187 O29         2.3170    1.6820    3.0100 oh        1 MOL     -0.766707
    188 H85         2.0790    0.9300    3.5520 ho        1 MOL      0.375093
    189 H86         1.5370    2.2470    3.0230 ho        1 MOL      0.375093
    190 O30         5.3660    3.5130    3.3380 oh        1 MOL     -0.766707
    191 H87         6.0470    4.1580    3.1510 ho        1 MOL      0.375093
    192 H88         5.7800    2.8810    3.9200 ho        1 MOL      0.375093
@<TRIPOS>BOND
     1    1    2 1   
     2    1    4 1   
     3    1    5 1   
     4    1    6 1   
     5    2    3 2   
     6    2    7 1   
     7    7    8 1   
     8    7   15 1   
     9    8    9 1   
    10    8   11 1   
    11    8   16 1   
    12    9   10 2   
    13    9   19 1   
    14   11   12 1   
    15   11   17 1   
    16   11   18 1   
    17   12   13 1   
    18   12   14 1   
    19   19   20 1   
    20   19   27 1   
    21   20   21 1   
    22   20   23 1   
    23   20   28 1   
    24   21   22 2   
    25   21   38 1   
    26   23   24 1   
    27   23   25 1   
    28   23   29 1   
    29   24   26 1   
    30   24   30 1   
    31   24   31 1   
    32   25   32 1   
    33   25   33 1   
    34   25   34 1   
    35   26   35 1   
    36   26   36 1   
    37   26   37 1   
    38   38   39 1   
    39   38   46 1   
    40   39   40 1   
    41   39   42 1   
    42   39   47 1   
    43   40   41 2   
    44   40   50 1   
    45   42   43 1   
    46   42   48 1   
    47   42   49 1   
    48   43   44 1   
    49   43   45 1   
    50   50   51 1   
    51   50   54 1   
    52   51   52 1   
    53   51   55 1   
    54   51   56 1   
    55   52   53 2   
    56   52   57 1   
    57   57   58 1   
    58   57   65 1   
    59   58   59 1   
    60   58   61 1   
    61   58   66 1   
    62   59   60 2   
    63   59   69 1   
    64   61   62 1   
    65   61   67 1   
    66   61   68 1   
    67   62   63 1   
    68   62   64 1   
    69   69   70 1   
    70   69   73 1   
    71   70   71 1   
    72   70   74 1   
    73   70   75 1   
    74   71   72 2   
    75   71   76 1   
    76   76   77 1   
    77   76   85 1   
    78   77   78 1   
    79   77   80 1   
    80   77   86 1   
    81   78   79 2   
    82   78   93 1   
    83   80   81 1   
    84   80   87 1   
    85   80   88 1   
    86   81   82 1   
    87   81   89 1   
    88   81   90 1   
    89   82   83 1   
    90   82   84 2   
    91   83   91 1   
    92   83   92 1   
    93   93   94 1   
    94   93  100 1   
    95   94   95 1   
    96   94   97 1   
    97   94  101 1   
    98   95   96 2   
    99   95  109 1   
   100   97   98 1   
   101   97   99 1   
   102   97  102 1   
   103   98  103 1   
   104   98  104 1   
   105   98  105 1   
   106   99  106 1   
   107   99  107 1   
   108   99  108 1   
   109  109  110 1   
   110  109  117 1   
   111  110  111 1   
   112  110  113 1   
   113  110  118 1   
   114  111  112 2   
   115  111  123 1   
   116  113  114 1   
   117  113  119 1   
   118  113  120 1   
   119  114  115 1   
   120  114  116 2   
   121  115  121 1   
   122  115  122 1   
   123  123  124 1   
   124  123  135 1   
   125  124  125 1   
   126  124  127 1   
   127  124  136 1   
   128  125  126 2   
   129  125  144 1   
   130  127  128 1   
   131  127  137 1   
   132  127  138 1   
   133  128  129 ar  
   134  128  130 ar  
   135  129  131 ar  
   136  129  139 1   
   137  130  132 ar  
   138  130  140 1   
   139  131  133 ar  
   140  131  141 1   
   141  132  133 ar  
   142  132  142 1   
   143  133  134 1   
   144  134  143 1   
   145  144  145 1   
   146  144  153 1   
   147  145  146 1   
   148  145  148 1   
   149  145  154 1   
   150  146  147 2   
   151  146  159 1   
   152  148  149 1   
   153  148  155 1   
   154  148  156 1   
   155  149  150 1   
   156  149  157 1   
   157  149  158 1   
   158  150  151 1   
   159  150  152 1   
   160  159  160 1   
   161  159  168 1   
   162  160  161 1   
   163  160  163 1   
   164  160  169 1   
   165  161  162 2   
   166  161  174 1   
   167  163  164 1   
   168  163  170 1   
   169  163  171 1   
   170  164  165 1   
   171  164  172 1   
   172  164  173 1   
   173  165  166 1   
   174  165  167 1   
   175  174  175 1   
   176  174  179 1   
   177  175  176 1   
   178  175  177 1   
   179  175  178 1   
   180  181  182 1   
   181  181  183 1   
   182  184  185 1   
   183  184  186 1   
   184  187  188 1   
   185  187  189 1   
   186  190  191 1   
   187  190  192 1   
@<TRIPOS>SUBSTRUCTURE
     1 MOL         1 TEMP              0 ****  ****    0 ROOT
