@<TRIPOS>MOLECULE
MOL
  189   185     1     0     0
SMALL
resp


@<TRIPOS>ATOM
      1 C1        -12.0890    4.9300    2.8460 c3        1 MOL     -0.363955
      2 C2        -11.8250    3.6040    2.0710 c         1 MOL      0.691384
      3 O1        -12.6410    2.6860    2.1790 o         1 MOL     -0.549876
      4 H1        -12.5660    5.6500    2.1810 hc        1 MOL      0.093071
      5 H2        -12.7430    4.7310    3.6950 hc        1 MOL      0.093071
      6 H3        -11.1430    5.3370    3.2040 hc        1 MOL      0.093071
      7 N1        -10.6630    3.4890    1.3710 n         1 MOL     -0.387611
      8 C3        -10.1470    2.1560    0.8980 c3        1 MOL     -0.342446
      9 C4         -8.6080    2.2030    1.1860 c         1 MOL      0.777791
     10 O2         -7.9840    3.3020    1.0580 o         1 MOL     -0.651962
     11 C5        -10.5720    1.7670   -0.5860 c3        1 MOL      0.022516
     12 C6        -10.3240    2.8560   -1.5850 c         1 MOL      0.641810
     13 O3         -9.3200    3.6170   -1.5480 o         1 MOL     -0.650555
     14 O4        -11.1640    2.9780   -2.4780 o         1 MOL     -0.650555
     15 H4        -10.1440    4.3410    1.1970 hn        1 MOL      0.210797
     16 H5        -10.5670    1.4170    1.5890 h1        1 MOL      0.126835
     17 H6        -11.6520    1.6210   -0.5970 hc        1 MOL      0.046393
     18 H7        -10.1350    0.8030   -0.8680 hc        1 MOL      0.046393
     19 N2         -8.0220    1.1100    1.6520 n         1 MOL     -0.685037
     20 C7         -6.5570    0.9610    1.7840 c3        1 MOL      0.094058
     21 C8         -5.8750    0.5750    0.4270 c         1 MOL      0.806538
     22 O5         -6.4220   -0.0770   -0.4580 o         1 MOL     -0.547846
     23 C9         -6.2660   -0.1260    2.9270 c3        1 MOL     -0.136150
     24 C10        -7.1760    0.1340    4.1920 c3        1 MOL      0.063180
     25 C11        -6.5650   -0.5640    5.4360 c3        1 MOL     -0.178611
     26 C12        -6.5430   -2.0190    5.2930 c3        1 MOL      0.182922
     27 N3         -6.3950   -2.7100    6.6130 n4        1 MOL     -0.435939
     28 H8         -8.5930    0.3190    1.8900 hn        1 MOL      0.391625
     29 H9         -6.0760    1.9070    2.0620 h1        1 MOL      0.082316
     30 H10        -5.2070   -0.0090    3.1540 hc        1 MOL      0.056840
     31 H11        -6.4810   -1.1430    2.6070 hc        1 MOL      0.056840
     32 H12        -8.2060   -0.1510    3.9710 hc        1 MOL      0.015283
     33 H13        -7.1390    1.2020    4.4050 hc        1 MOL      0.015283
     34 H14        -7.1940   -0.2860    6.2760 hc        1 MOL      0.076777
     35 H15        -5.5450   -0.1590    5.5040 hc        1 MOL      0.076777
     36 H16        -5.7090   -2.2640    4.6300 hx        1 MOL      0.056002
     37 H17        -7.4180   -2.4090    4.7650 hx        1 MOL      0.056002
     38 H18        -6.1620   -3.6830    6.4940 hn        1 MOL      0.300734
     39 H19        -5.5830   -2.3440    7.1000 hn        1 MOL      0.300734
     40 H20        -7.2340   -2.6720    7.1710 hn        1 MOL      0.300734
     41 N4         -4.6100    0.9560    0.3490 n         1 MOL     -0.923676
     42 C13        -3.7260    0.8420   -0.9020 c3        1 MOL      0.512273
     43 C14        -2.3400    0.2240   -0.5940 c         1 MOL      0.430169
     44 O6         -1.6170    0.5310    0.3410 o         1 MOL     -0.521541
     45 C15        -3.3930    2.2110   -1.4950 c3        1 MOL     -0.075380
     46 C16        -4.6340    3.0940   -1.5560 c         1 MOL      0.709823
     47 O7         -5.6070    2.8060   -2.1950 o         1 MOL     -0.842112
     48 O8         -4.7570    4.0860   -0.7790 o         1 MOL     -0.842112
     49 H21        -4.1390    1.4740    1.0780 hn        1 MOL      0.331208
     50 H22        -4.3550    0.3290   -1.6320 h1        1 MOL      0.121187
     51 H23        -2.9750    2.1250   -2.4950 hc        1 MOL      0.034341
     52 H24        -2.5290    2.6950   -1.0370 hc        1 MOL      0.034341
     53 N5         -1.7210   -0.5180   -1.5130 n         1 MOL     -0.550613
     54 C17        -2.2920   -1.1360   -2.7510 c3        1 MOL     -0.070830
     55 C18        -2.8420   -2.5970   -2.4390 c         1 MOL      0.345208
     56 O9         -2.8130   -2.9750   -1.2560 o         1 MOL     -0.534272
     57 H25        -0.7900   -0.8450   -1.2860 hn        1 MOL      0.386888
     58 H26        -1.5690   -1.0740   -3.5660 h1        1 MOL      0.088440
     59 H27        -3.1090   -0.5040   -3.0830 h1        1 MOL      0.088440
     60 N6         -3.2060   -3.3590   -3.4620 n         1 MOL     -0.067920
     61 C19        -4.0640   -4.5910   -3.2610 c3        1 MOL     -0.184617
     62 C20        -3.2180   -5.7220   -2.7260 c         1 MOL      0.561508
     63 O10        -3.7080   -6.6050   -2.0690 o         1 MOL     -0.547798
     64 C21        -4.6560   -5.0220   -4.6020 c3        1 MOL     -0.393273
     65 C22        -3.7450   -5.0130   -5.8700 c         1 MOL      0.677971
     66 O11        -3.7300   -6.1150   -6.5330 o         1 MOL     -0.646020
     67 O12        -3.0800   -4.0080   -6.1270 o         1 MOL     -0.646020
     68 H28        -2.9440   -3.1870   -4.4250 hn        1 MOL      0.163528
     69 H29        -4.9470   -4.4600   -2.6330 h1        1 MOL      0.137963
     70 H30        -5.4260   -4.3270   -4.9480 hc        1 MOL      0.130435
     71 H31        -4.9220   -6.0810   -4.5380 hc        1 MOL      0.130435
     72 N7         -1.9090   -5.7630   -2.9420 n         1 MOL     -0.195789
     73 C23        -0.9020   -6.6540   -2.3760 c3        1 MOL     -0.228943
     74 C24        -0.5410   -6.3540   -0.9410 c         1 MOL      0.579674
     75 O13         0.1160   -7.2140   -0.3070 o         1 MOL     -0.579024
     76 H32        -1.5850   -4.9100   -3.3750 hn        1 MOL      0.188004
     77 H33        -0.0440   -6.5630   -3.0450 h1        1 MOL      0.128214
     78 H34        -1.1960   -7.6970   -2.4730 h1        1 MOL      0.128214
     79 N8         -0.9310   -5.1890   -0.4050 n         1 MOL     -0.286880
     80 C25        -0.5440   -4.6900    0.9210 c3        1 MOL     -0.056055
     81 C26         0.1160   -3.2830    0.7050 c         1 MOL      0.597642
     82 O14         0.1130   -2.7970   -0.4030 o         1 MOL     -0.468688
     83 C27        -1.7870   -4.5380    1.8300 c3        1 MOL      0.309722
     84 C28        -2.6760   -5.7810    1.8950 c3        1 MOL     -0.289058
     85 O15        -1.2330   -4.3150    3.1690 oh        1 MOL     -0.688365
     86 H35        -1.5290   -4.5750   -0.9440 hn        1 MOL      0.174618
     87 H36         0.1600   -5.3480    1.4200 h1        1 MOL      0.058120
     88 H37        -2.4770   -3.7560    1.5130 h1        1 MOL      0.080547
     89 H38        -0.7490   -5.0800    3.4930 ho        1 MOL      0.405511
     90 H39        -3.6100   -5.6000    2.4200 hc        1 MOL      0.076217
     91 H40        -2.8410   -6.1710    0.8880 hc        1 MOL      0.076217
     92 H41        -2.2230   -6.5840    2.4700 hc        1 MOL      0.076217
     93 N9          0.7330   -2.6910    1.7590 n         1 MOL     -0.529302
     94 C29         1.3070   -1.3150    1.6640 c3        1 MOL     -0.109481
     95 C30         2.7230   -1.2950    0.9890 c         1 MOL      0.529028
     96 O16         3.0560   -0.4330    0.1840 o         1 MOL     -0.502879
     97 C31         1.4090   -0.6190    3.0000 c3        1 MOL      0.027079
     98 C32         0.2530   -0.8700    4.0670 c3        1 MOL      0.233808
     99 C33         1.4630    0.9100    2.7460 c3        1 MOL     -0.057446
    100 C34         0.6140   -0.4810    5.4770 c3        1 MOL     -0.357980
    101 H42         0.6580   -3.1620    2.6490 hn        1 MOL      0.293708
    102 H43         0.6300   -0.7990    0.9790 h1        1 MOL      0.103737
    103 H44         2.3530   -0.9500    3.4520 hc        1 MOL      0.014352
    104 H45        -0.0130   -1.9300    4.0950 hc        1 MOL     -0.015641
    105 H46        -0.7130   -0.4190    3.8430 hc        1 MOL     -0.015641
    106 H47         1.6370    1.4980    3.6410 hc        1 MOL      0.020950
    107 H48         2.3090    1.1060    2.0870 hc        1 MOL      0.020950
    108 H49         0.5230    1.2810    2.3360 hc        1 MOL      0.020950
    109 H50         0.0520   -1.1530    6.1200 hc        1 MOL      0.072419
    110 H51         1.6870   -0.6450    5.6070 hc        1 MOL      0.072419
    111 H52         0.3520    0.5710    5.5790 hc        1 MOL      0.072419
    112 N10         3.5030   -2.4000    1.2580 n         1 MOL     -0.317409
    113 C35         4.6690   -2.7400    0.4810 c3        1 MOL     -0.156948
    114 C36         5.9260   -2.9290    1.3340 c         1 MOL      0.562185
    115 O17         5.8100   -3.4580    2.4770 o         1 MOL     -0.542956
    116 C37         4.4220   -4.0210   -0.3280 c3        1 MOL      0.452782
    117 C38         3.0040   -4.1630   -0.9200 c3        1 MOL     -0.420052
    118 O18         5.2870   -4.0870   -1.5050 oh        1 MOL     -0.691445
    119 H53         3.1930   -2.9770    2.0280 hn        1 MOL      0.228420
    120 H54         4.8650   -1.8720   -0.1560 h1        1 MOL      0.115191
    121 H55         4.5880   -4.9360    0.2410 h1        1 MOL      0.031006
    122 H56         4.8070   -3.6710   -2.2300 ho        1 MOL      0.409121
    123 H57         2.6850   -3.1670   -1.2360 hc        1 MOL      0.112959
    124 H58         3.0290   -4.8120   -1.8010 hc        1 MOL      0.112959
    125 H59         2.3780   -4.6070   -0.1440 hc        1 MOL      0.112959
    126 N11         7.1180   -2.5010    0.8760 n         1 MOL     -0.408501
    127 C39         8.3460   -2.2560    1.6980 c3        1 MOL     -0.173117
    128 C40         8.8910   -0.8010    1.7300 c         1 MOL      0.691560
    129 O19         9.3550   -0.3290    2.7830 o         1 MOL     -0.574394
    130 C41         9.5630   -3.1930    1.2380 c3        1 MOL      0.375299
    131 C42        10.8790   -3.0300    1.9980 c3        1 MOL     -0.402107
    132 O20         9.6150   -2.9670   -0.1660 oh        1 MOL     -0.621751
    133 H60         7.1080   -2.0980   -0.0480 hn        1 MOL      0.232468
    134 H61         8.0660   -2.4170    2.7390 h1        1 MOL      0.119237
    135 H62         9.2570   -4.2460    1.2610 h1        1 MOL      0.009721
    136 H63         8.9620   -3.5780   -0.5160 ho        1 MOL      0.392918
    137 H64        11.6030   -3.7190    1.5680 hc        1 MOL      0.117646
    138 H65        11.0900   -1.9750    1.8320 hc        1 MOL      0.117646
    139 H66        10.6660   -3.2540    3.0410 hc        1 MOL      0.117646
    140 N12         8.8090   -0.1850    0.5610 n         1 MOL     -0.503524
    141 C43         9.3310    1.1390    0.3940 c3        1 MOL      0.155565
    142 C44         8.5390    2.0350   -0.5930 c         1 MOL      0.387323
    143 O21         7.8300    1.4970   -1.4390 o         1 MOL     -0.471079
    144 C45        10.8630    1.0960   -0.0630 c3        1 MOL     -0.222989
    145 C46        11.6620    2.3410    0.3550 c3        1 MOL      0.083803
    146 C47        13.2010    2.3280    0.0750 c3        1 MOL     -0.268729
    147 C48        13.5760    2.1860   -1.3620 c3        1 MOL      0.196698
    148 N13        15.0070    2.2400   -1.5630 n4        1 MOL     -0.264743
    149 H67         8.3860   -0.6650   -0.2210 hn        1 MOL      0.316618
    150 H68         9.2300    1.6390    1.3530 h1        1 MOL      0.045785
    151 H69        10.8170    0.9130   -1.1350 hc        1 MOL      0.081932
    152 H70        11.3420    0.2360    0.4360 hc        1 MOL      0.081932
    153 H71        11.5560    2.5830    1.4120 hc        1 MOL      0.034122
    154 H72        11.1880    3.1540   -0.2000 hc        1 MOL      0.034122
    155 H73        13.6970    1.5330    0.6350 hc        1 MOL      0.088355
    156 H74        13.5110    3.3060    0.4690 hc        1 MOL      0.088355
    157 H75        13.0880    2.9250   -2.0000 hx        1 MOL      0.047411
    158 H76        13.2130    1.2560   -1.8080 hx        1 MOL      0.047411
    159 H77        15.3190    3.1040   -1.1470 hn        1 MOL      0.255534
    160 H78        15.5270    1.4890   -1.1310 hn        1 MOL      0.255534
    161 H79        15.3830    2.3610   -2.4940 hn        1 MOL      0.255534
    162 N14         8.5700    3.3540   -0.4090 n         1 MOL     -0.273766
    163 C49         7.7660    4.3040   -1.2180 c3        1 MOL     -0.026583
    164 C50         6.2310    4.1930   -1.0110 c         1 MOL      0.390884
    165 O22         5.4910    4.1780   -2.0210 o         1 MOL     -0.503827
    166 C51         8.1530    5.7100   -0.8630 c3        1 MOL      0.263623
    167 C52         7.4800    6.8240   -1.5330 c3        1 MOL     -0.286801
    168 C53         8.2040    8.1510   -1.1450 c         1 MOL      0.647783
    169 O23         8.2120    8.5200    0.0520 o         1 MOL     -0.630562
    170 O24         9.0510    8.6540   -1.9320 o         1 MOL     -0.630562
    171 H80         9.1990    3.7540    0.2720 hn        1 MOL      0.198472
    172 H81         8.0900    4.2200   -2.2530 h1        1 MOL      0.085806
    173 H82         9.2160    5.7300   -1.0930 hc        1 MOL     -0.049446
    174 H83         8.0960    5.7860    0.2250 hc        1 MOL     -0.049446
    175 H84         6.4340    6.9190   -1.2500 hc        1 MOL      0.063911
    176 H85         7.5740    6.6370   -2.6070 hc        1 MOL      0.063911
    177 N15         5.6560    3.9770    0.2250 n         1 MOL     -0.320000
    178 C54         6.0620    4.3520    1.5680 c3        1 MOL     -0.053637
    179 H86         5.6300    3.6550    2.2850 h1        1 MOL      0.054699
    180 H87         7.1500    4.3200    1.6410 h1        1 MOL      0.054699
    181 H88         5.7130    5.3610    1.7860 h1        1 MOL      0.054699
    182 H89         4.6700    3.7520    0.2330 hn        1 MOL      0.286326
    183 Ca1        -6.9720    5.0340   -1.1650 Ca        1 MOL      1.715849
    184 O25        -7.9870    4.3420   -3.6570 oh        1 MOL     -0.796339
    185 H90        -8.1850    4.1530   -4.5730 ho        1 MOL      0.398967
    186 H91        -8.6440    3.8620   -3.1640 ho        1 MOL      0.398967
    187 O26        -8.4000    7.1240   -2.5840 oh        1 MOL     -0.796339
    188 H92        -8.1430    7.4060   -3.4700 ho        1 MOL      0.398967
    189 H93        -7.8980    7.6790   -1.9980 ho        1 MOL      0.398967
@<TRIPOS>BOND
     1    1    2 1   
     2    1    4 1   
     3    1    5 1   
     4    1    6 1   
     5    2    3 2   
     6    2    7 1   
     7    7    8 1   
     8    7   15 1   
     9    8    9 1   
    10    8   11 1   
    11    8   16 1   
    12    9   10 2   
    13    9   19 1   
    14   11   12 1   
    15   11   17 1   
    16   11   18 1   
    17   12   13 1   
    18   12   14 1   
    19   19   20 1   
    20   19   28 1   
    21   20   21 1   
    22   20   23 1   
    23   20   29 1   
    24   21   22 2   
    25   21   41 1   
    26   23   24 1   
    27   23   30 1   
    28   23   31 1   
    29   24   25 1   
    30   24   32 1   
    31   24   33 1   
    32   25   26 1   
    33   25   34 1   
    34   25   35 1   
    35   26   27 1   
    36   26   36 1   
    37   26   37 1   
    38   27   38 1   
    39   27   39 1   
    40   27   40 1   
    41   41   42 1   
    42   41   49 1   
    43   42   43 1   
    44   42   45 1   
    45   42   50 1   
    46   43   44 2   
    47   43   53 1   
    48   45   46 1   
    49   45   51 1   
    50   45   52 1   
    51   46   47 1   
    52   46   48 1   
    53   53   54 1   
    54   53   57 1   
    55   54   55 1   
    56   54   58 1   
    57   54   59 1   
    58   55   56 2   
    59   55   60 1   
    60   60   61 1   
    61   60   68 1   
    62   61   62 1   
    63   61   64 1   
    64   61   69 1   
    65   62   63 2   
    66   62   72 1   
    67   64   65 1   
    68   64   70 1   
    69   64   71 1   
    70   65   66 1   
    71   65   67 1   
    72   72   73 1   
    73   72   76 1   
    74   73   74 1   
    75   73   77 1   
    76   73   78 1   
    77   74   75 2   
    78   74   79 1   
    79   79   80 1   
    80   79   86 1   
    81   80   81 1   
    82   80   83 1   
    83   80   87 1   
    84   81   82 2   
    85   81   93 1   
    86   83   84 1   
    87   83   85 1   
    88   83   88 1   
    89   84   90 1   
    90   84   91 1   
    91   84   92 1   
    92   85   89 1   
    93   93   94 1   
    94   93  101 1   
    95   94   95 1   
    96   94   97 1   
    97   94  102 1   
    98   95   96 2   
    99   95  112 1   
   100   97   98 1   
   101   97   99 1   
   102   97  103 1   
   103   98  100 1   
   104   98  104 1   
   105   98  105 1   
   106   99  106 1   
   107   99  107 1   
   108   99  108 1   
   109  100  109 1   
   110  100  110 1   
   111  100  111 1   
   112  112  113 1   
   113  112  119 1   
   114  113  114 1   
   115  113  116 1   
   116  113  120 1   
   117  114  115 2   
   118  114  126 1   
   119  116  117 1   
   120  116  118 1   
   121  116  121 1   
   122  117  123 1   
   123  117  124 1   
   124  117  125 1   
   125  118  122 1   
   126  126  127 1   
   127  126  133 1   
   128  127  128 1   
   129  127  130 1   
   130  127  134 1   
   131  128  129 2   
   132  128  140 1   
   133  130  131 1   
   134  130  132 1   
   135  130  135 1   
   136  131  137 1   
   137  131  138 1   
   138  131  139 1   
   139  132  136 1   
   140  140  141 1   
   141  140  149 1   
   142  141  142 1   
   143  141  144 1   
   144  141  150 1   
   145  142  143 2   
   146  142  162 1   
   147  144  145 1   
   148  144  151 1   
   149  144  152 1   
   150  145  146 1   
   151  145  153 1   
   152  145  154 1   
   153  146  147 1   
   154  146  155 1   
   155  146  156 1   
   156  147  148 1   
   157  147  157 1   
   158  147  158 1   
   159  148  159 1   
   160  148  160 1   
   161  148  161 1   
   162  162  163 1   
   163  162  171 1   
   164  163  164 1   
   165  163  166 1   
   166  163  172 1   
   167  164  165 2   
   168  164  177 1   
   169  166  167 1   
   170  166  173 1   
   171  166  174 1   
   172  167  168 1   
   173  167  175 1   
   174  167  176 1   
   175  168  169 1   
   176  168  170 1   
   177  177  178 1   
   178  177  182 1   
   179  178  179 1   
   180  178  180 1   
   181  178  181 1   
   182  184  185 1   
   183  184  186 1   
   184  187  188 1   
   185  187  189 1   
@<TRIPOS>SUBSTRUCTURE
     1 MOL         1 TEMP              0 ****  ****    0 ROOT
