@<TRIPOS>MOLECULE
MOL
  192   187     1     0     0
SMALL
resp


@<TRIPOS>ATOM
      1 C1          3.6450   -2.3290   -2.6000 c3        1 MOL     -0.482527
      2 C2          2.7930   -3.0870   -1.5150 c         1 MOL      0.585474
      3 O1          1.7790   -2.5450   -1.0600 o         1 MOL     -0.508326
      4 H1          4.4140   -2.9970   -2.9890 hc        1 MOL      0.129748
      5 H2          2.9960   -2.0100   -3.4160 hc        1 MOL      0.129748
      6 H3          4.1170   -1.4570   -2.1480 hc        1 MOL      0.129748
      7 N1          3.1050   -4.3130   -1.1530 n         1 MOL     -0.227837
      8 C3          2.4150   -5.1080   -0.1090 c3        1 MOL     -0.118018
      9 C4          0.8120   -5.0850   -0.2210 c         1 MOL      0.709384
     10 O2          0.1470   -5.0560    0.7990 o         1 MOL     -0.539426
     11 C5          2.9190   -4.6590    1.2620 c3        1 MOL     -0.295433
     12 C6          4.4470   -4.7570    1.4550 c         1 MOL      0.891979
     13 O3          5.1250   -5.4670    0.6810 o         1 MOL     -0.786752
     14 O4          5.0050   -4.2600    2.4550 o         1 MOL     -0.786752
     15 H4          4.0150   -4.6040   -1.4830 hn        1 MOL      0.153735
     16 H5          2.7160   -6.1350   -0.2820 h1        1 MOL      0.089324
     17 H6          2.5080   -5.2880    2.0450 hc        1 MOL      0.104372
     18 H7          2.5760   -3.6480    1.4890 hc        1 MOL      0.104372
     19 N2          0.2820   -5.1450   -1.4250 n         1 MOL     -0.545307
     20 C7         -1.1480   -4.9580   -1.7830 c3        1 MOL     -0.222126
     21 C8         -1.9830   -6.2860   -1.5090 c         1 MOL      0.657536
     22 O5         -1.5900   -7.3930   -1.8150 o         1 MOL     -0.610889
     23 C9         -1.3530   -4.6150   -3.3260 c3        1 MOL      0.205480
     24 C10        -0.4930   -5.4840   -4.2530 c3        1 MOL      0.042863
     25 C11        -0.9920   -3.1040   -3.4370 c3        1 MOL      0.013340
     26 C12        -0.6900   -5.1500   -5.7690 c3        1 MOL     -0.205317
     27 H8          0.9180   -5.2190   -2.2020 hn        1 MOL      0.223594
     28 H9         -1.5590   -4.1760   -1.1550 h1        1 MOL      0.218929
     29 H10        -2.4270   -4.6200   -3.5210 hc        1 MOL      0.017727
     30 H11        -0.8650   -6.5120   -4.1680 hc        1 MOL      0.008648
     31 H12         0.5570   -5.3740   -3.9860 hc        1 MOL      0.008648
     32 H13        -1.6270   -2.4930   -2.8000 hc        1 MOL     -0.011796
     33 H14         0.0560   -2.8410   -3.3250 hc        1 MOL     -0.011796
     34 H15        -1.2660   -2.8540   -4.4720 hc        1 MOL     -0.011796
     35 H16        -0.1480   -4.2380   -6.0290 hc        1 MOL      0.038716
     36 H17        -0.3250   -5.9950   -6.3490 hc        1 MOL      0.038716
     37 H18        -1.7370   -5.0270   -6.0300 hc        1 MOL      0.038716
     38 N3         -3.2610   -6.2340   -1.1220 n         1 MOL     -0.517853
     39 C13        -4.0740   -5.0830   -0.6810 c3        1 MOL     -0.017355
     40 C14        -4.9990   -5.6460    0.4840 c         1 MOL      0.633228
     41 O6         -5.5630   -6.6880    0.3670 o         1 MOL     -0.576444
     42 C15        -4.7710   -4.3890   -1.8620 c3        1 MOL     -0.142473
     43 C16        -5.9720   -3.4870   -1.5020 c         1 MOL      0.763133
     44 O7         -6.1800   -3.1390   -0.3750 o         1 MOL     -0.737827
     45 O8         -6.5010   -2.9850   -2.5200 o         1 MOL     -0.737827
     46 H19        -3.7600   -7.0990   -0.9620 hn        1 MOL      0.290059
     47 H20        -3.4580   -4.3840   -0.1360 h1        1 MOL      0.038767
     48 H21        -4.9820   -4.9710   -2.7600 hc        1 MOL      0.032341
     49 H22        -4.0660   -3.6670   -2.2730 hc        1 MOL      0.032341
     50 N4         -5.1270   -4.8710    1.5260 n         1 MOL     -0.449230
     51 C17        -6.2410   -5.0740    2.5610 c3        1 MOL     -0.061607
     52 C18        -6.7030   -3.8040    3.1920 c         1 MOL      0.747632
     53 O9         -7.1850   -3.9080    4.2710 o         1 MOL     -0.629916
     54 H23        -4.7340   -3.9480    1.4830 hn        1 MOL      0.284626
     55 H24        -5.8320   -5.6620    3.3720 h1        1 MOL      0.056227
     56 H25        -7.1190   -5.5680    2.1550 h1        1 MOL      0.056227
     57 N5         -6.5480   -2.6840    2.4700 n         1 MOL     -0.581781
     58 C19        -6.7820   -1.3780    3.0220 c3        1 MOL      0.044736
     59 C20        -7.5810   -0.4880    1.9710 c         1 MOL      0.471993
     60 O10        -8.4860    0.3360    2.3400 o         1 MOL     -0.589476
     61 C21        -5.4050   -0.7140    3.3390 c3        1 MOL     -0.175939
     62 C22        -4.4020   -0.5570    2.1830 c         1 MOL      0.684210
     63 O11        -3.7890   -1.5750    1.8690 o         1 MOL     -0.691445
     64 O12        -4.2490    0.5740    1.6200 o         1 MOL     -0.691445
     65 H26        -6.2680   -2.7890    1.5030 hn        1 MOL      0.318989
     66 H27        -7.3230   -1.4240    3.9660 h1        1 MOL      0.070805
     67 H28        -4.9260   -1.3820    4.0520 hc        1 MOL      0.031486
     68 H29        -5.5800    0.2670    3.7830 hc        1 MOL      0.031486
     69 N6         -7.2980   -0.7490    0.6930 n         1 MOL     -0.246503
     70 C23        -7.8020    0.0770   -0.4470 c3        1 MOL     -0.265356
     71 C24        -7.5190    1.5640   -0.3540 c         1 MOL      0.771693
     72 O13        -8.2420    2.2060   -1.0990 o         1 MOL     -0.620127
     73 H30        -6.5460   -1.3840    0.4450 hn        1 MOL      0.314892
     74 H31        -8.8650   -0.1320   -0.5720 h1        1 MOL      0.131894
     75 H32        -7.2250   -0.1880   -1.3310 h1        1 MOL      0.131894
     76 N7         -6.6910    2.1530    0.5240 n         1 MOL     -0.586981
     77 C25        -6.4730    3.5490    0.7680 c3        1 MOL      0.179843
     78 C26        -6.1140    4.4540   -0.5020 c         1 MOL      0.282802
     79 O14        -6.4800    5.6550   -0.6470 o         1 MOL     -0.491002
     80 C27        -7.7030    4.1830    1.4580 c3        1 MOL      0.055423
     81 C28        -7.8950    3.5700    2.8240 c3        1 MOL     -0.139969
     82 C29        -6.8380    3.9160    3.7290 c         1 MOL      0.562436
     83 N8         -6.7210    3.2240    4.8810 n         1 MOL     -0.713178
     84 O15        -6.0340    4.8430    3.3850 o         1 MOL     -0.550148
     85 H33        -6.2080    1.5730    1.1940 hn        1 MOL      0.308259
     86 H34        -5.5990    3.6790    1.4100 h1        1 MOL      0.081978
     87 H35        -8.6290    3.9910    0.9280 hc        1 MOL      0.011340
     88 H36        -7.5650    5.2660    1.5390 hc        1 MOL      0.011340
     89 H37        -7.8120    2.4860    2.8280 hc        1 MOL      0.032593
     90 H38        -8.7960    3.9040    3.3390 hc        1 MOL      0.032593
     91 H39        -7.4580    2.5880    5.1410 hn        1 MOL      0.326528
     92 H40        -6.0540    3.4050    5.6180 hn        1 MOL      0.326528
     93 N9         -5.3840    3.7880   -1.3910 n         1 MOL     -0.052222
     94 C30        -4.7870    4.4410   -2.6070 c3        1 MOL     -0.295744
     95 C31        -3.2860    4.2330   -2.8530 c         1 MOL      0.567293
     96 O16        -2.7140    4.6480   -3.8980 o         1 MOL     -0.586941
     97 C32        -5.6720    3.9820   -3.8160 c3        1 MOL      0.314239
     98 C33        -5.7230    2.4480   -4.0160 c3        1 MOL     -0.367190
     99 C34        -7.1620    4.5250   -3.6540 c3        1 MOL     -0.367190
    100 H41        -5.2050    2.7910   -1.3090 hn        1 MOL      0.175496
    101 H42        -4.9110    5.5260   -2.5550 h1        1 MOL      0.148120
    102 H43        -5.3670    4.3190   -4.8010 hc        1 MOL     -0.029125
    103 H44        -6.5620    2.1010   -4.6060 hc        1 MOL      0.087842
    104 H45        -4.7810    2.1110   -4.4610 hc        1 MOL      0.087842
    105 H46        -5.9430    1.9670   -3.0600 hc        1 MOL      0.087842
    106 H47        -7.6630    4.0450   -2.8050 hc        1 MOL      0.087842
    107 H48        -7.0570    5.5990   -3.4890 hc        1 MOL      0.087842
    108 H49        -7.6670    4.3320   -4.6000 hc        1 MOL      0.087842
    109 N10        -2.6500    3.5220   -1.9610 n         1 MOL     -0.408832
    110 C35        -1.2900    2.9590   -2.1110 c3        1 MOL      0.265044
    111 C36        -0.4330    3.2340   -0.8520 c         1 MOL      0.446608
    112 O17        -0.9420    3.4810    0.2520 o         1 MOL     -0.506724
    113 C37        -1.4120    1.4540   -2.3710 c3        1 MOL     -0.004766
    114 C38        -0.0620    0.7600   -2.3990 c         1 MOL      0.567006
    115 N11         0.0700   -0.4340   -1.7810 n         1 MOL     -0.791686
    116 O18         0.8220    1.2460   -3.1180 o         1 MOL     -0.564067
    117 H50        -3.1730    3.2230   -1.1480 hn        1 MOL      0.199762
    118 H51        -0.7960    3.3410   -3.0110 h1        1 MOL      0.022873
    119 H52        -1.9960    1.2810   -3.2780 hc        1 MOL      0.019547
    120 H53        -1.9700    0.9830   -1.5640 hc        1 MOL      0.019547
    121 H54        -0.6690   -0.8500   -1.2370 hn        1 MOL      0.378298
    122 H55         0.9440   -0.9470   -1.7810 hn        1 MOL      0.378298
    123 N12         0.9110    3.1410   -1.0300 n         1 MOL     -0.569485
    124 C39         1.9000    3.4950    0.1050 c3        1 MOL      0.345655
    125 C40         3.2520    3.9940   -0.4900 c         1 MOL      0.505167
    126 O19         3.6120    3.7190   -1.6200 o         1 MOL     -0.534864
    127 C41         2.0790    2.1660    0.8590 c3        1 MOL     -0.065035
    128 C42         2.7480    2.2650    2.2770 ca        1 MOL     -0.060349
    129 C43         4.0080    1.8360    2.5480 ca        1 MOL     -0.077152
    130 C44         2.1010    2.9690    3.2930 ca        1 MOL     -0.077152
    131 C45         4.5790    1.7930    3.8720 ca        1 MOL     -0.337578
    132 C46         2.7020    3.1400    4.6360 ca        1 MOL     -0.337578
    133 C47         3.9000    2.4830    4.8860 ca        1 MOL      0.403730
    134 O20         4.3430    2.4660    6.1790 oh        1 MOL     -0.509886
    135 H56         1.2000    2.7750   -1.9310 hn        1 MOL      0.261896
    136 H57         1.5100    4.2690    0.7530 h1        1 MOL      0.000540
    137 H58         2.7470    1.4510    0.3840 hc        1 MOL      0.067761
    138 H59         1.1190    1.6660    0.9890 hc        1 MOL      0.067761
    139 H60         4.6230    1.4670    1.7470 ha        1 MOL      0.130806
    140 H61         1.1420    3.4320    3.0990 ha        1 MOL      0.130806
    141 H62         5.5290    1.2920    3.9670 ha        1 MOL      0.169539
    142 H63         2.1100    3.6940    5.3510 ha        1 MOL      0.169539
    143 H64         5.0010    1.7730    6.3160 ho        1 MOL      0.344423
    144 N13         4.1120    4.5980    0.3760 n         1 MOL     -0.564359
    145 C48         5.3950    5.0510    0.0950 c3        1 MOL      0.050747
    146 C49         6.2900    4.3360    1.1450 c         1 MOL      0.579247
    147 O21         6.5230    4.8730    2.1860 o         1 MOL     -0.572571
    148 C50         5.4320    6.6280    0.2380 c3        1 MOL      0.147510
    149 C51         4.8090    7.3170   -1.0020 c3        1 MOL     -0.161826
    150 C52         4.7220    8.8440   -0.8460 c         1 MOL      0.661427
    151 O22         5.2110    9.5590   -1.7440 o         1 MOL     -0.688758
    152 O23         4.2870    9.2290    0.2650 o         1 MOL     -0.688758
    153 H65         3.7580    4.7230    1.3030 hn        1 MOL      0.330936
    154 H66         5.7910    4.7530   -0.8730 h1        1 MOL      0.116057
    155 H67         6.4840    6.8890    0.2850 hc        1 MOL     -0.015381
    156 H68         4.9910    6.9130    1.1970 hc        1 MOL     -0.015381
    157 H69         3.8020    6.8960   -1.1380 hc        1 MOL      0.009731
    158 H70         5.4120    7.0310   -1.8610 hc        1 MOL      0.009731
    159 N14         6.7630    3.0960    0.9330 n         1 MOL     -0.410507
    160 C53         6.4860    2.2770   -0.2310 c3        1 MOL     -0.258711
    161 C54         7.2180    2.6990   -1.4960 c         1 MOL      0.465521
    162 O24         8.2760    3.3240   -1.4210 o         1 MOL     -0.518787
    163 C55         6.8570    0.8670    0.0890 c3        1 MOL      0.208504
    164 C56         6.5080   -0.1520   -1.0190 c3        1 MOL     -0.222122
    165 C57         6.7700   -1.5440   -0.4680 c         1 MOL      0.852311
    166 O25         7.9820   -1.8980   -0.4360 o         1 MOL     -0.833915
    167 O26         5.9280   -2.3670   -0.2090 o         1 MOL     -0.833915
    168 H71         7.2970    2.6980    1.6940 hn        1 MOL      0.243333
    169 H72         5.4160    2.1960   -0.3940 h1        1 MOL      0.072368
    170 H73         6.4620    0.5230    1.0450 hc        1 MOL      0.007377
    171 H74         7.9380    0.8200    0.2110 hc        1 MOL      0.007377
    172 H75         7.0420    0.1780   -1.9060 hc        1 MOL      0.023833
    173 H76         5.4820   -0.0190   -1.3710 hc        1 MOL      0.023833
    174 N15         6.4460    2.5570   -2.5990 n         1 MOL     -0.144145
    175 C58         6.6770    3.2070   -3.9300 c3        1 MOL     -0.226917
    176 H77         7.2310    4.1350   -3.7890 h1        1 MOL      0.094158
    177 H78         7.2510    2.5360   -4.5680 h1        1 MOL      0.094158
    178 H79         5.7180    3.4240   -4.4000 h1        1 MOL      0.094158
    179 H80         5.6140    1.9930   -2.5790 hn        1 MOL      0.254799
    180 Ca1         7.3510   -4.2780    0.7790 Ca        1 MOL      1.752112
    181 O27         7.5060   -7.0120    1.1520 oh        1 MOL     -0.827227
    182 H81         6.9350   -7.5900    1.6640 ho        1 MOL      0.396169
    183 H82         8.2060   -7.5870    0.8420 ho        1 MOL      0.396169
    184 O28         9.7580   -5.1000   -0.2050 oh        1 MOL     -0.827227
    185 H83        10.0360   -5.4170   -1.0550 ho        1 MOL      0.396169
    186 H84        10.4830   -5.2970    0.3800 ho        1 MOL      0.396169
    187 O29         8.8700   -4.8310    2.9770 oh        1 MOL     -0.827227
    188 H85         9.7250   -4.5960    3.3490 ho        1 MOL      0.396169
    189 H86         8.5780   -5.5720    3.5060 ho        1 MOL      0.396169
    190 O30         7.5170   -1.9200    2.3940 oh        1 MOL     -0.827227
    191 H87         7.1080   -2.1170    3.2290 ho        1 MOL      0.396169
    192 H88         7.7580   -0.9920    2.4580 ho        1 MOL      0.396169
@<TRIPOS>BOND
     1    1    2 1   
     2    1    4 1   
     3    1    5 1   
     4    1    6 1   
     5    2    3 2   
     6    2    7 1   
     7    7    8 1   
     8    7   15 1   
     9    8    9 1   
    10    8   11 1   
    11    8   16 1   
    12    9   10 2   
    13    9   19 1   
    14   11   12 1   
    15   11   17 1   
    16   11   18 1   
    17   12   13 1   
    18   12   14 1   
    19   19   20 1   
    20   19   27 1   
    21   20   21 1   
    22   20   23 1   
    23   20   28 1   
    24   21   22 2   
    25   21   38 1   
    26   23   24 1   
    27   23   25 1   
    28   23   29 1   
    29   24   26 1   
    30   24   30 1   
    31   24   31 1   
    32   25   32 1   
    33   25   33 1   
    34   25   34 1   
    35   26   35 1   
    36   26   36 1   
    37   26   37 1   
    38   38   39 1   
    39   38   46 1   
    40   39   40 1   
    41   39   42 1   
    42   39   47 1   
    43   40   41 2   
    44   40   50 1   
    45   42   43 1   
    46   42   48 1   
    47   42   49 1   
    48   43   44 1   
    49   43   45 1   
    50   50   51 1   
    51   50   54 1   
    52   51   52 1   
    53   51   55 1   
    54   51   56 1   
    55   52   53 2   
    56   52   57 1   
    57   57   58 1   
    58   57   65 1   
    59   58   59 1   
    60   58   61 1   
    61   58   66 1   
    62   59   60 2   
    63   59   69 1   
    64   61   62 1   
    65   61   67 1   
    66   61   68 1   
    67   62   63 1   
    68   62   64 1   
    69   69   70 1   
    70   69   73 1   
    71   70   71 1   
    72   70   74 1   
    73   70   75 1   
    74   71   72 2   
    75   71   76 1   
    76   76   77 1   
    77   76   85 1   
    78   77   78 1   
    79   77   80 1   
    80   77   86 1   
    81   78   79 2   
    82   78   93 1   
    83   80   81 1   
    84   80   87 1   
    85   80   88 1   
    86   81   82 1   
    87   81   89 1   
    88   81   90 1   
    89   82   83 1   
    90   82   84 2   
    91   83   91 1   
    92   83   92 1   
    93   93   94 1   
    94   93  100 1   
    95   94   95 1   
    96   94   97 1   
    97   94  101 1   
    98   95   96 2   
    99   95  109 1   
   100   97   98 1   
   101   97   99 1   
   102   97  102 1   
   103   98  103 1   
   104   98  104 1   
   105   98  105 1   
   106   99  106 1   
   107   99  107 1   
   108   99  108 1   
   109  109  110 1   
   110  109  117 1   
   111  110  111 1   
   112  110  113 1   
   113  110  118 1   
   114  111  112 2   
   115  111  123 1   
   116  113  114 1   
   117  113  119 1   
   118  113  120 1   
   119  114  115 1   
   120  114  116 2   
   121  115  121 1   
   122  115  122 1   
   123  123  124 1   
   124  123  135 1   
   125  124  125 1   
   126  124  127 1   
   127  124  136 1   
   128  125  126 2   
   129  125  144 1   
   130  127  128 1   
   131  127  137 1   
   132  127  138 1   
   133  128  129 ar  
   134  128  130 ar  
   135  129  131 ar  
   136  129  139 1   
   137  130  132 ar  
   138  130  140 1   
   139  131  133 ar  
   140  131  141 1   
   141  132  133 ar  
   142  132  142 1   
   143  133  134 1   
   144  134  143 1   
   145  144  145 1   
   146  144  153 1   
   147  145  146 1   
   148  145  148 1   
   149  145  154 1   
   150  146  147 2   
   151  146  159 1   
   152  148  149 1   
   153  148  155 1   
   154  148  156 1   
   155  149  150 1   
   156  149  157 1   
   157  149  158 1   
   158  150  151 1   
   159  150  152 1   
   160  159  160 1   
   161  159  168 1   
   162  160  161 1   
   163  160  163 1   
   164  160  169 1   
   165  161  162 2   
   166  161  174 1   
   167  163  164 1   
   168  163  170 1   
   169  163  171 1   
   170  164  165 1   
   171  164  172 1   
   172  164  173 1   
   173  165  166 1   
   174  165  167 1   
   175  174  175 1   
   176  174  179 1   
   177  175  176 1   
   178  175  177 1   
   179  175  178 1   
   180  181  182 1   
   181  181  183 1   
   182  184  185 1   
   183  184  186 1   
   184  187  188 1   
   185  187  189 1   
   186  190  191 1   
   187  190  192 1   
@<TRIPOS>SUBSTRUCTURE
     1 MOL         1 TEMP              0 ****  ****    0 ROOT
