@<TRIPOS>MOLECULE
MOL
  188   182     1     0     0
SMALL
resp


@<TRIPOS>ATOM
      1 C1          8.0220    4.5760    2.8800 c3        1 MOL     -0.404057
      2 C2          6.9120    3.9060    2.0220 c         1 MOL      0.696925
      3 O1          5.7520    4.1990    2.1520 o         1 MOL     -0.612187
      4 H1          8.5530    5.3110    2.2770 hc        1 MOL      0.103658
      5 H2          7.5690    5.0700    3.7400 hc        1 MOL      0.103658
      6 H3          8.7240    3.8150    3.2260 hc        1 MOL      0.103658
      7 N1          7.2920    2.8920    1.2190 n         1 MOL     -0.571059
      8 C3          6.3510    2.2040    0.3130 c3        1 MOL      0.149171
      9 C4          5.2840    1.3650    1.0150 c         1 MOL      0.411830
     10 O2          4.1750    1.2570    0.4320 o         1 MOL     -0.574605
     11 C5          7.1130    1.2590   -0.6650 c3        1 MOL     -0.203400
     12 C6          8.0830    0.2870    0.0540 c         1 MOL      0.691468
     13 O3          8.7050   -0.5610   -0.6590 o         1 MOL     -0.663643
     14 O4          8.2370    0.1990    1.3140 o         1 MOL     -0.663643
     15 H4          8.2830    2.8880    1.0060 hn        1 MOL      0.299873
     16 H5          5.7940    2.9540   -0.2500 h1        1 MOL      0.052005
     17 H6          7.8160    1.8110   -1.2960 hc        1 MOL      0.046256
     18 H7          6.3770    0.7650   -1.2890 hc        1 MOL      0.046256
     19 N2          5.6530    0.9470    2.1830 n         1 MOL     -0.096153
     20 C7          4.8120    0.0400    2.9850 c3        1 MOL     -0.008758
     21 C8          4.9390   -1.4270    2.5710 c         1 MOL      0.279875
     22 O5          6.0660   -1.8720    2.3120 o         1 MOL     -0.454333
     23 C9          5.2310    0.1360    4.5010 c3        1 MOL      0.136287
     24 C10         4.2110   -0.4130    5.5230 c3        1 MOL     -0.213842
     25 C11         2.7920    0.1140    5.4650 c3        1 MOL      0.108266
     26 C12         2.0100   -0.4100    6.7140 c3        1 MOL      0.051309
     27 N3          0.6700    0.1320    6.6450 n4        1 MOL     -0.200190
     28 H8          6.5130    1.3210    2.5450 hn        1 MOL      0.191033
     29 H9          3.7840    0.4020    2.9510 h1        1 MOL      0.005542
     30 H10         5.2900    1.2190    4.6060 hc        1 MOL      0.010929
     31 H11         6.2410   -0.1420    4.7980 hc        1 MOL      0.010929
     32 H12         4.5540   -0.2340    6.5420 hc        1 MOL      0.058095
     33 H13         4.1750   -1.4680    5.2430 hc        1 MOL      0.058095
     34 H14         2.3710   -0.2670    4.5330 hc        1 MOL     -0.034433
     35 H15         2.8330    1.2010    5.5140 hc        1 MOL     -0.034433
     36 H16         2.4820    0.0240    7.5880 hx        1 MOL      0.068250
     37 H17         1.8770   -1.4920    6.7430 hx        1 MOL      0.068250
     38 H18         0.0680   -0.1870    5.8980 hn        1 MOL      0.259585
     39 H19         0.2100   -0.1490    7.5020 hn        1 MOL      0.259585
     40 H20         0.7900    1.1300    6.6190 hn        1 MOL      0.259585
     41 N4          3.8000   -2.0630    2.3610 n         1 MOL      0.144150
     42 C13         3.6150   -3.4270    1.9710 c3        1 MOL      0.004979
     43 C14         3.3390   -3.5770    0.3950 c         1 MOL      0.409874
     44 O6          3.4070   -2.5910   -0.3220 o         1 MOL     -0.466710
     45 C15         2.4960   -3.9470    2.8540 c3        1 MOL     -0.403220
     46 C16         1.2930   -3.0200    3.1870 c         1 MOL      0.751910
     47 O7          1.0280   -2.0100    2.6330 o         1 MOL     -0.680824
     48 O8          0.5470   -3.3800    4.1280 o         1 MOL     -0.680824
     49 H21         2.9430   -1.5470    2.5340 hn        1 MOL     -0.031188
     50 H22         4.5170   -3.9250    2.3200 h1        1 MOL      0.060914
     51 H23         2.9740   -4.2750    3.7810 hc        1 MOL      0.089941
     52 H24         2.0550   -4.8380    2.4110 hc        1 MOL      0.089941
     53 N5          3.2450   -4.7900   -0.0670 n         1 MOL     -0.176581
     54 C17         3.3680   -5.1930   -1.4730 c3        1 MOL     -0.369056
     55 C18         4.7410   -5.0280   -2.0780 c         1 MOL      0.606827
     56 O9          5.6410   -5.7920   -1.7340 o         1 MOL     -0.546033
     57 H25         3.1340   -5.5480    0.6000 hn        1 MOL      0.268726
     58 H26         2.7520   -4.4660   -2.0000 h1        1 MOL      0.135198
     59 H27         3.1240   -6.2540   -1.6380 h1        1 MOL      0.135198
     60 N6          5.0870   -4.0830   -2.9720 n         1 MOL     -0.368153
     61 C19         4.4020   -2.9800   -3.5970 c3        1 MOL      0.012190
     62 C20         5.2190   -1.7190   -3.7160 c         1 MOL      0.563858
     63 O10         6.3810   -1.7600   -3.9290 o         1 MOL     -0.500586
     64 C21         3.9040   -3.3710   -4.9610 c3        1 MOL     -0.420248
     65 C22         2.6750   -4.1370   -4.8210 c         1 MOL      0.654081
     66 N7          2.6610   -5.4360   -5.1470 n         1 MOL     -0.740538
     67 O11         1.5560   -3.6320   -4.5820 o         1 MOL     -0.587156
     68 H28         6.0610   -4.0980   -3.2340 hn        1 MOL      0.284990
     69 H29         3.5830   -2.5980   -2.9840 h1        1 MOL      0.165156
     70 H30         4.6590   -3.8860   -5.5540 hc        1 MOL      0.159859
     71 H31         3.6800   -2.4450   -5.4930 hc        1 MOL      0.159859
     72 H32         3.4400   -6.0400   -5.3440 hn        1 MOL      0.353023
     73 H33         1.7140   -5.7680   -5.2140 hn        1 MOL      0.353023
     74 N8          4.6160   -0.5190   -3.5680 n         1 MOL     -0.399199
     75 C23         3.1720   -0.2120   -3.4910 c3        1 MOL      0.083039
     76 C24         2.7380    1.1730   -3.0540 c         1 MOL      0.574203
     77 O12         3.4890    2.1520   -3.1710 o         1 MOL     -0.531227
     78 H34         5.2330    0.2620   -3.7270 hn        1 MOL      0.272033
     79 H35         2.6530   -0.7640   -2.7030 h1        1 MOL     -0.026287
     80 H36         2.6780   -0.3500   -4.4490 h1        1 MOL     -0.026287
     81 N9          1.5540    1.3040   -2.4230 n         1 MOL     -0.452499
     82 C25         0.9540    2.6360   -1.9990 c3        1 MOL      0.030897
     83 C26        -0.2090    2.3910   -1.0890 c         1 MOL      0.757212
     84 O13        -0.6390    1.2740   -0.8390 o         1 MOL     -0.595471
     85 C27         0.5200    3.4100   -3.2720 c3        1 MOL     -0.262134
     86 C28        -0.0920    4.8150   -2.9330 ca        1 MOL      0.153736
     87 C29        -1.1210    5.3350   -3.7280 ca        1 MOL     -0.141617
     88 C30         0.6880    5.7320   -2.2600 ca        1 MOL     -0.141617
     89 C31        -1.4580    6.7260   -3.6950 ca        1 MOL     -0.268093
     90 C32         0.3040    7.0800   -2.0930 ca        1 MOL     -0.268093
     91 C33        -0.6620    7.5380   -2.9070 ca        1 MOL      0.343210
     92 O14        -0.8290    8.8590   -3.0440 oh        1 MOL     -0.467703
     93 H37         0.9760    0.5010   -2.2430 hn        1 MOL      0.249142
     94 H38         1.8300    3.1200   -1.5690 h1        1 MOL      0.094362
     95 H39        -0.3000    2.7990   -3.6600 hc        1 MOL      0.095323
     96 H40         1.3140    3.5360   -3.9920 hc        1 MOL      0.095323
     97 H41        -1.6410    4.7240   -4.4500 ha        1 MOL      0.126385
     98 H42         1.5300    5.4610   -1.6280 ha        1 MOL      0.126385
     99 H43        -2.2690    7.0810   -4.3160 ha        1 MOL      0.158228
    100 H44         0.8830    7.8420   -1.5960 ha        1 MOL      0.158228
    101 H45        -0.2740    9.3060   -2.4000 ho        1 MOL      0.343094
    102 N10        -0.6770    3.4140   -0.3970 n         1 MOL     -0.602665
    103 C34        -1.9550    3.3750    0.3360 c3        1 MOL      0.055852
    104 C35        -3.1420    3.2010   -0.5960 c         1 MOL      0.497406
    105 O15        -3.5630    4.1010   -1.3350 o         1 MOL     -0.512865
    106 C36        -2.2320    4.6230    1.1590 c3        1 MOL      0.172255
    107 C37        -3.5870    4.7170    1.9190 c3        1 MOL     -0.298920
    108 C38        -1.1050    4.6760    2.1620 c3        1 MOL     -0.177623
    109 C39        -3.8060    3.5980    2.9750 c3        1 MOL     -0.184304
    110 H46        -0.3060    4.3410   -0.5110 hn        1 MOL      0.263591
    111 H47        -1.8800    2.4870    0.9700 h1        1 MOL      0.159810
    112 H48        -2.1130    5.4580    0.4660 hc        1 MOL     -0.015066
    113 H49        -4.3340    4.6800    1.1320 hc        1 MOL      0.123675
    114 H50        -3.6700    5.6790    2.4310 hc        1 MOL      0.123675
    115 H51        -1.0870    5.6100    2.7170 hc        1 MOL      0.037065
    116 H52        -1.1170    3.8500    2.8790 hc        1 MOL      0.037065
    117 H53        -0.1860    4.7290    1.5810 hc        1 MOL      0.037065
    118 H54        -3.3220    3.8190    3.9240 hc        1 MOL      0.053108
    119 H55        -4.8530    3.4760    3.2470 hc        1 MOL      0.053108
    120 H56        -3.4130    2.6250    2.7050 hc        1 MOL      0.053108
    121 N11        -3.8820    2.0320   -0.4930 n         1 MOL     -0.401227
    122 C40        -5.0120    1.6780   -1.3950 c3        1 MOL      0.088205
    123 C41        -5.2090    0.1890   -1.6880 c         1 MOL      0.446316
    124 O16        -5.0160   -0.7080   -0.8600 o         1 MOL     -0.342684
    125 C42        -6.2990    2.2870   -0.8550 c3        1 MOL      0.019273
    126 O17        -7.4150    1.9830   -1.7070 oh        1 MOL     -0.611087
    127 H57        -3.5750    1.2730    0.0930 hn        1 MOL      0.165996
    128 H58        -4.7190    2.1920   -2.3060 h1        1 MOL      0.059602
    129 H59        -6.1280    3.3680   -0.8390 h1        1 MOL      0.061665
    130 H60        -6.5270    1.9580    0.1600 h1        1 MOL      0.061665
    131 H61        -8.0550    2.6850   -1.6100 ho        1 MOL      0.416379
    132 N12        -5.4680   -0.1160   -2.9480 n         1 MOL     -0.467264
    133 C43        -5.7550   -1.4700   -3.4470 c3        1 MOL      0.061064
    134 C44        -6.7180   -2.2920   -2.4960 c         1 MOL      0.351548
    135 O18        -6.4630   -3.4110   -2.1580 o         1 MOL     -0.430231
    136 C45        -4.4390   -2.1940   -3.6270 c3        1 MOL     -0.125114
    137 H62        -5.5380    0.5730   -3.6900 hn        1 MOL      0.322415
    138 H63        -6.1230   -1.3240   -4.4680 h1        1 MOL      0.092278
    139 H64        -4.5840   -3.2010   -4.0320 hc        1 MOL      0.034853
    140 H65        -3.8750   -1.6990   -4.4180 hc        1 MOL      0.034853
    141 H66        -3.7480   -2.1800   -2.7860 hc        1 MOL      0.034853
    142 N13        -7.6710   -1.5860   -1.9910 n         1 MOL     -0.341058
    143 C46        -8.7310   -2.0440   -1.0560 c3        1 MOL      0.332724
    144 C47        -8.1690   -2.4980    0.2850 c         1 MOL      0.340592
    145 O19        -8.4770   -3.5730    0.6860 o         1 MOL     -0.480017
    146 C48        -9.6980   -3.0660   -1.7130 c3        1 MOL     -0.431390
    147 H67        -7.8120   -0.6990   -2.4580 hn        1 MOL      0.211666
    148 H68        -9.2440   -1.1310   -0.7490 h1        1 MOL     -0.020667
    149 H69       -10.1740   -2.5720   -2.5580 hc        1 MOL      0.125984
    150 H70        -9.1500   -3.9770   -1.9620 hc        1 MOL      0.125984
    151 H71       -10.5270   -3.2590   -1.0270 hc        1 MOL      0.125984
    152 N14        -7.2940   -1.7480    0.9560 n         1 MOL     -0.293841
    153 C49        -6.7400   -2.1650    2.2800 c3        1 MOL      0.091225
    154 C50        -7.3320   -1.4840    3.4820 c         1 MOL      0.310562
    155 O20        -7.0320   -1.9300    4.6060 o         1 MOL     -0.492678
    156 C51        -5.2290   -2.1890    2.2710 c3        1 MOL     -0.083849
    157 C52        -4.7100   -0.7740    2.3670 c3        1 MOL      0.002982
    158 C53        -3.1970   -0.7220    1.9920 c         1 MOL      0.616613
    159 O21        -2.7160    0.2080    1.3300 o         1 MOL     -0.713646
    160 O22        -2.4320   -1.5800    2.4830 o         1 MOL     -0.713646
    161 H72        -6.7670   -1.0400    0.4620 hn        1 MOL      0.198067
    162 H73        -6.9460   -3.2360    2.4070 h1        1 MOL      0.101211
    163 H74        -4.7900   -2.6840    1.4080 hc        1 MOL      0.045634
    164 H75        -4.8970   -2.5500    3.2400 hc        1 MOL      0.045634
    165 H76        -4.9570   -0.3970    3.3620 hc        1 MOL      0.007637
    166 H77        -5.3160   -0.0770    1.7910 hc        1 MOL      0.007637
    167 N15        -8.2160   -0.5420    3.2530 n         1 MOL     -0.178335
    168 C54        -8.9450    0.1240    4.3600 c3        1 MOL     -0.186935
    169 H78        -9.0770   -0.5800    5.1820 h1        1 MOL      0.098345
    170 H79        -8.3730    0.9840    4.7070 h1        1 MOL      0.098345
    171 H80        -9.9210    0.4550    4.0050 h1        1 MOL      0.098345
    172 H81        -8.3760   -0.2060    2.3180 hn        1 MOL      0.193114
    173 Ca1        -0.4920   -0.9230    0.6550 Ca        1 MOL      1.713280
    174 O23        -0.1650   -1.2920   -2.3210 oh        1 MOL     -0.785285
    175 H82        -0.1210   -2.1260   -2.7890 ho        1 MOL      0.391344
    176 H83        -0.9190   -0.8380   -2.7060 ho        1 MOL      0.391344
    177 O24         0.2790   -3.6040    0.1910 oh        1 MOL     -0.785285
    178 H84         0.2760   -4.0650   -0.6510 ho        1 MOL      0.391344
    179 H85         0.4610   -4.2790    0.8380 ho        1 MOL      0.391344
    180 O25         0.3100    1.3610    2.0420 oh        1 MOL     -0.785285
    181 H86         0.0470    1.4880    2.9570 ho        1 MOL      0.391344
    182 H87         1.0070    1.9960    1.9070 ho        1 MOL      0.391344
    183 O26        -2.5570   -1.8870   -0.6350 oh        1 MOL     -0.785285
    184 H88        -2.7820   -2.8060   -0.7990 ho        1 MOL      0.391344
    185 H89        -3.3690   -1.4040   -0.7900 ho        1 MOL      0.391344
    186 O27         2.0460   -0.4140    0.0830 oh        1 MOL     -0.785285
    187 H90         2.7340    0.2580    0.0980 ho        1 MOL      0.391344
    188 H91         2.5180   -1.2420    0.0620 ho        1 MOL      0.391344
@<TRIPOS>BOND
     1    1    2 1   
     2    1    4 1   
     3    1    5 1   
     4    1    6 1   
     5    2    3 2   
     6    2    7 1   
     7    7    8 1   
     8    7   15 1   
     9    8    9 1   
    10    8   11 1   
    11    8   16 1   
    12    9   10 2   
    13    9   19 1   
    14   11   12 1   
    15   11   17 1   
    16   11   18 1   
    17   12   13 1   
    18   12   14 1   
    19   19   20 1   
    20   19   28 1   
    21   20   21 1   
    22   20   23 1   
    23   20   29 1   
    24   21   22 2   
    25   21   41 1   
    26   23   24 1   
    27   23   30 1   
    28   23   31 1   
    29   24   25 1   
    30   24   32 1   
    31   24   33 1   
    32   25   26 1   
    33   25   34 1   
    34   25   35 1   
    35   26   27 1   
    36   26   36 1   
    37   26   37 1   
    38   27   38 1   
    39   27   39 1   
    40   27   40 1   
    41   41   42 1   
    42   41   49 1   
    43   42   43 1   
    44   42   45 1   
    45   42   50 1   
    46   43   44 2   
    47   43   53 1   
    48   45   46 1   
    49   45   51 1   
    50   45   52 1   
    51   46   47 1   
    52   46   48 1   
    53   53   54 1   
    54   53   57 1   
    55   54   55 1   
    56   54   58 1   
    57   54   59 1   
    58   55   56 2   
    59   55   60 1   
    60   60   61 1   
    61   60   68 1   
    62   61   62 1   
    63   61   64 1   
    64   61   69 1   
    65   62   63 2   
    66   62   74 1   
    67   64   65 1   
    68   64   70 1   
    69   64   71 1   
    70   65   66 1   
    71   65   67 2   
    72   66   72 1   
    73   66   73 1   
    74   74   75 1   
    75   74   78 1   
    76   75   76 1   
    77   75   79 1   
    78   75   80 1   
    79   76   77 2   
    80   76   81 1   
    81   81   82 1   
    82   81   93 1   
    83   82   83 1   
    84   82   85 1   
    85   82   94 1   
    86   83   84 2   
    87   83  102 1   
    88   85   86 1   
    89   85   95 1   
    90   85   96 1   
    91   86   87 ar  
    92   86   88 ar  
    93   87   89 ar  
    94   87   97 1   
    95   88   90 ar  
    96   88   98 1   
    97   89   91 ar  
    98   89   99 1   
    99   90   91 ar  
   100   90  100 1   
   101   91   92 1   
   102   92  101 1   
   103  102  103 1   
   104  102  110 1   
   105  103  104 1   
   106  103  106 1   
   107  103  111 1   
   108  104  105 2   
   109  104  121 1   
   110  106  107 1   
   111  106  108 1   
   112  106  112 1   
   113  107  109 1   
   114  107  113 1   
   115  107  114 1   
   116  108  115 1   
   117  108  116 1   
   118  108  117 1   
   119  109  118 1   
   120  109  119 1   
   121  109  120 1   
   122  121  122 1   
   123  121  127 1   
   124  122  123 1   
   125  122  125 1   
   126  122  128 1   
   127  123  124 2   
   128  123  132 1   
   129  125  126 1   
   130  125  129 1   
   131  125  130 1   
   132  126  131 1   
   133  132  133 1   
   134  132  137 1   
   135  133  134 1   
   136  133  136 1   
   137  133  138 1   
   138  134  135 2   
   139  134  142 1   
   140  136  139 1   
   141  136  140 1   
   142  136  141 1   
   143  142  143 1   
   144  142  147 1   
   145  143  144 1   
   146  143  146 1   
   147  143  148 1   
   148  144  145 2   
   149  144  152 1   
   150  146  149 1   
   151  146  150 1   
   152  146  151 1   
   153  152  153 1   
   154  152  161 1   
   155  153  154 1   
   156  153  156 1   
   157  153  162 1   
   158  154  155 2   
   159  154  167 1   
   160  156  157 1   
   161  156  163 1   
   162  156  164 1   
   163  157  158 1   
   164  157  165 1   
   165  157  166 1   
   166  158  159 1   
   167  158  160 1   
   168  167  168 1   
   169  167  172 1   
   170  168  169 1   
   171  168  170 1   
   172  168  171 1   
   173  174  175 1   
   174  174  176 1   
   175  177  178 1   
   176  177  179 1   
   177  180  181 1   
   178  180  182 1   
   179  183  184 1   
   180  183  185 1   
   181  186  187 1   
   182  186  188 1   
@<TRIPOS>SUBSTRUCTURE
     1 MOL         1 TEMP              0 ****  ****    0 ROOT
