@<TRIPOS>MOLECULE
MOL
  192   187     1     0     0
SMALL
resp


@<TRIPOS>ATOM
      1 C1         -4.8380   -5.2150    3.8810 c3        1 MOL     -0.261186
      2 C2         -4.7120   -4.1480    2.8240 c         1 MOL      0.789589
      3 O1         -4.3500   -4.4390    1.6440 o         1 MOL     -0.651912
      4 H1         -3.8580   -5.4080    4.3190 hc        1 MOL      0.068758
      5 H2         -5.5230   -4.8770    4.6590 hc        1 MOL      0.068758
      6 H3         -5.2210   -6.1300    3.4300 hc        1 MOL      0.068758
      7 N1         -4.9360   -2.8630    3.1470 n         1 MOL     -0.721689
      8 C3         -4.7620   -1.7650    2.2770 c3        1 MOL      0.230677
      9 C4         -3.3260   -1.4670    1.7370 c         1 MOL      0.371531
     10 O2         -3.0470   -0.7290    0.7710 o         1 MOL     -0.363324
     11 C5         -5.4940   -0.5330    2.9100 c3        1 MOL     -0.042091
     12 C6         -5.3300   -0.1360    4.3650 c         1 MOL      0.664617
     13 O3         -4.6900    0.9110    4.7490 o         1 MOL     -0.686317
     14 O4         -5.8560   -0.8830    5.1600 o         1 MOL     -0.686317
     15 H4         -5.3520   -2.6600    4.0480 hn        1 MOL      0.356552
     16 H5         -5.3700   -1.9970    1.4040 h1        1 MOL      0.026901
     17 H6         -6.5700   -0.5350    2.7510 hc        1 MOL      0.026889
     18 H7         -5.1670    0.2800    2.2660 hc        1 MOL      0.026889
     19 N2         -2.3060   -2.0380    2.4230 n         1 MOL     -0.236921
     20 C7         -0.9310   -1.5510    2.4690 c3        1 MOL      0.048469
     21 C8          0.0320   -2.4440    1.8070 c         1 MOL      0.551745
     22 O5          0.0490   -3.6660    2.2170 o         1 MOL     -0.579875
     23 C9         -0.5370   -1.0990    3.9070 c3        1 MOL     -0.270599
     24 C10        -1.3580    0.1380    4.3520 c3        1 MOL      0.454905
     25 C11        -0.7240    0.7160    5.6350 c3        1 MOL      0.002797
     26 C12        -1.2320    2.1280    5.8270 c3        1 MOL      0.132153
     27 N3         -2.7230    2.1060    6.0840 n4        1 MOL     -0.223537
     28 H8         -2.5120   -2.7510    3.1100 hn        1 MOL      0.240899
     29 H9         -0.9740   -0.6780    1.8110 h1        1 MOL      0.001437
     30 H10         0.5180   -0.8310    3.8960 hc        1 MOL      0.058223
     31 H11        -0.8200   -1.9350    4.5400 hc        1 MOL      0.058223
     32 H12        -2.4100   -0.0880    4.4880 hc        1 MOL     -0.162231
     33 H13        -1.4230    0.8810    3.5550 hc        1 MOL     -0.162231
     34 H14         0.3620    0.7980    5.5360 hc        1 MOL      0.016592
     35 H15        -0.8680    0.0530    6.4900 hc        1 MOL      0.016592
     36 H16        -1.0520    2.8780    5.0600 hx        1 MOL      0.006622
     37 H17        -0.7870    2.3940    6.7830 hx        1 MOL      0.006622
     38 H18        -3.2150    1.9750    5.2080 hn        1 MOL      0.265257
     39 H19        -2.9690    1.4150    6.7730 hn        1 MOL      0.265257
     40 H20        -3.1060    2.9800    6.4010 hn        1 MOL      0.265257
     41 N4          0.8290   -2.1430    0.7340 n         1 MOL      0.088772
     42 C13         1.2730   -0.8470    0.2740 c3        1 MOL     -0.570925
     43 C14         1.6090    0.0930    1.4580 c         1 MOL      0.288812
     44 O6          0.9720    1.1410    1.6150 o         1 MOL     -0.422257
     45 C15         0.4540   -0.3220   -0.9130 c3        1 MOL     -0.190348
     46 C16         0.5120   -1.0930   -2.2090 c         1 MOL      0.557681
     47 O7          1.4150   -2.0000   -2.3500 o         1 MOL     -0.623908
     48 O8         -0.3510   -0.9120   -3.1400 o         1 MOL     -0.623908
     49 H21         1.3740   -2.9340    0.4340 hn        1 MOL      0.136281
     50 H22         2.2690   -0.9070   -0.1630 h1        1 MOL      0.147125
     51 H23         0.7450    0.7150   -1.0650 hc        1 MOL      0.155865
     52 H24        -0.5920   -0.1710   -0.6620 hc        1 MOL      0.155865
     53 N5          2.5480   -0.2460    2.3790 n         1 MOL     -0.278681
     54 C17         3.5320   -1.3380    2.1150 c3        1 MOL     -0.032328
     55 C18         4.8150   -1.4030    3.0400 c         1 MOL      0.585696
     56 O9          4.8300   -0.7310    4.0770 o         1 MOL     -0.554578
     57 H25         2.6540    0.4090    3.1400 hn        1 MOL      0.288992
     58 H26         3.8630   -1.2640    1.0710 h1        1 MOL      0.048132
     59 H27         2.9160   -2.2390    2.1400 h1        1 MOL      0.048132
     60 N6          5.8560   -2.1160    2.6390 n         1 MOL     -0.548548
     61 C19         5.8690   -3.0480    1.4920 c3        1 MOL      0.225889
     62 C20         6.7210   -2.3760    0.3260 c         1 MOL      0.246716
     63 O10         7.5910   -1.5270    0.5400 o         1 MOL     -0.384781
     64 C21         6.5780   -4.3720    1.8320 c3        1 MOL     -0.348556
     65 C22         8.1650   -4.2970    2.0700 c         1 MOL      0.723686
     66 O11         8.9520   -4.0530    1.1330 o         1 MOL     -0.631681
     67 O12         8.6860   -4.4960    3.2070 o         1 MOL     -0.631681
     68 H28         6.7000   -2.1050    3.2060 hn        1 MOL      0.372204
     69 H29         4.9020   -3.3150    1.0710 h1        1 MOL      0.050826
     70 H30         6.2860   -5.0750    1.0500 hc        1 MOL      0.062665
     71 H31         6.1760   -4.8910    2.7030 hc        1 MOL      0.062665
     72 N7          6.5860   -2.8890   -0.9240 n         1 MOL     -0.203713
     73 C23         7.3780   -2.4840   -2.1030 c3        1 MOL     -0.215815
     74 C24         7.1440   -1.0000   -2.4450 c         1 MOL      0.423455
     75 O13         7.9550   -0.3710   -3.1750 o         1 MOL     -0.538250
     76 H32         5.9870   -3.6940   -0.9200 hn        1 MOL      0.194600
     77 H33         7.0330   -3.0890   -2.9430 h1        1 MOL      0.147129
     78 H34         8.4470   -2.6580   -1.9720 h1        1 MOL      0.147129
     79 N8          6.0620   -0.4020   -1.9550 n         1 MOL      0.056175
     80 C25         5.6930    1.0040   -2.1100 c3        1 MOL     -0.274958
     81 C26         4.9120    1.5410   -0.9060 c         1 MOL      0.110466
     82 O14         3.8430    1.0210   -0.5550 o         1 MOL     -0.138366
     83 C27         4.8400    1.1610   -3.4030 c3        1 MOL      0.409950
     84 C28         3.7660    0.1050   -3.7820 c3        1 MOL     -0.335555
     85 O15         5.6480    1.1890   -4.4380 oh        1 MOL     -0.604005
     86 H35         5.4510   -1.0420   -1.4720 hn        1 MOL      0.061754
     87 H36         6.5800    1.6290   -2.0820 h1        1 MOL      0.162167
     88 H37         4.3000    2.1070   -3.3860 h1        1 MOL      0.026372
     89 H38         6.3860    0.7090   -4.0610 ho        1 MOL      0.353194
     90 H39         3.5630    0.2240   -4.8460 hc        1 MOL      0.079677
     91 H40         4.0790   -0.8790   -3.4560 hc        1 MOL      0.079677
     92 H41         2.7850    0.3000   -3.3490 hc        1 MOL      0.079677
     93 N9          5.3580    2.6350   -0.2790 n         1 MOL     -0.195219
     94 C29         4.6460    3.3380    0.7940 c3        1 MOL     -0.133411
     95 C30         3.4270    4.1760    0.3450 c         1 MOL      0.490208
     96 O16         3.3050    5.3260    0.7630 o         1 MOL     -0.539400
     97 C31         5.7090    4.0680    1.6780 c3        1 MOL      0.017120
     98 C32         6.4990    5.1430    0.8250 c3        1 MOL      0.145086
     99 C33         6.6940    3.0760    2.3320 c3        1 MOL     -0.189169
    100 C34         7.4030    5.9560    1.6540 c3        1 MOL     -0.268181
    101 H42         6.0760    3.1640   -0.7460 hn        1 MOL      0.231938
    102 H43         4.1940    2.5270    1.3680 h1        1 MOL      0.125550
    103 H44         5.1340    4.6020    2.4200 hc        1 MOL      0.053800
    104 H45         5.7950    5.7590    0.2760 hc        1 MOL      0.002742
    105 H46         7.1510    4.6600    0.0930 hc        1 MOL      0.002742
    106 H47         6.1360    2.3240    2.8760 hc        1 MOL      0.058057
    107 H48         7.3210    2.4650    1.6880 hc        1 MOL      0.058057
    108 H49         7.3750    3.6040    3.0010 hc        1 MOL      0.058057
    109 H50         6.8230    6.3140    2.4990 hc        1 MOL      0.061529
    110 H51         8.2890    5.4060    1.9920 hc        1 MOL      0.061529
    111 H52         7.7650    6.7840    1.0540 hc        1 MOL      0.061529
    112 N10         2.4730    3.6190   -0.3170 n         1 MOL     -0.148186
    113 C35         1.4360    4.3650   -1.0710 c3        1 MOL      0.102394
    114 C36        -0.0090    3.9460   -0.7860 c         1 MOL      0.305079
    115 O17        -0.8440    4.7000   -1.2340 o         1 MOL     -0.512118
    116 C37         1.6600    4.4460   -2.5930 c3        1 MOL      0.237761
    117 C38         1.4430    3.1810   -3.3960 c3        1 MOL     -0.304906
    118 O18         3.0210    4.8480   -2.7560 oh        1 MOL     -0.627759
    119 H53         2.4560    2.6160   -0.3570 hn        1 MOL      0.017320
    120 H54         1.3040    5.3880   -0.7240 h1        1 MOL      0.099495
    121 H55         0.9860    5.1690   -3.0600 h1        1 MOL      0.031683
    122 H56         3.3070    4.5650   -3.6190 ho        1 MOL      0.383476
    123 H57         1.6970    3.3250   -4.4490 hc        1 MOL      0.113255
    124 H58         2.0000    2.3320   -2.9970 hc        1 MOL      0.113255
    125 H59         0.4010    2.8780   -3.4710 hc        1 MOL      0.113255
    126 N11        -0.3170    2.7870   -0.1110 n         1 MOL     -0.249373
    127 C39        -1.6520    2.4290    0.4140 c3        1 MOL      0.093176
    128 C40        -2.7070    2.2170   -0.6810 c         1 MOL      0.430479
    129 O19        -2.4820    2.3350   -1.8930 o         1 MOL     -0.460933
    130 C41        -2.0760    3.4920    1.4440 c3        1 MOL      0.440455
    131 C42        -1.0110    3.8500    2.5080 c3        1 MOL     -0.161148
    132 O20        -3.1700    3.0350    2.2300 oh        1 MOL     -0.793572
    133 H60         0.4430    2.2760    0.3340 hn        1 MOL      0.103594
    134 H61        -1.3960    1.4930    0.9040 h1        1 MOL      0.111295
    135 H62        -2.4430    4.4220    1.0090 h1        1 MOL     -0.020667
    136 H63        -3.6140    3.8580    2.4560 ho        1 MOL      0.419322
    137 H64        -1.4440    4.5600    3.2230 hc        1 MOL      0.039828
    138 H65        -0.5860    2.9550    2.9820 hc        1 MOL      0.039828
    139 H66        -0.2370    4.4610    2.0600 hc        1 MOL      0.039828
    140 N12        -3.9050    1.9190   -0.1890 n         1 MOL     -0.559604
    141 C43        -5.2280    1.9200   -0.9340 c3        1 MOL     -0.035863
    142 C44        -5.6330    0.6300   -1.5780 c         1 MOL      0.747281
    143 O21        -6.4220    0.7740   -2.5180 o         1 MOL     -0.671078
    144 C45        -6.3090    2.3280    0.1420 c3        1 MOL      0.227661
    145 C46        -7.7290    2.5570   -0.4290 c3        1 MOL     -0.018187
    146 C47        -7.8400    3.6620   -1.5090 c3        1 MOL      0.018681
    147 C48        -9.1990    3.7380   -2.1930 c3        1 MOL      0.226347
    148 N13        -9.3200    4.8700   -3.1510 n4        1 MOL     -0.374877
    149 H67        -3.9450    1.8770    0.8230 hn        1 MOL      0.410608
    150 H68        -5.1110    2.6740   -1.7160 h1        1 MOL      0.107398
    151 H69        -6.0660    3.2050    0.7240 hc        1 MOL     -0.084401
    152 H70        -6.2950    1.5320    0.8840 hc        1 MOL     -0.084401
    153 H71        -8.3770    2.7170    0.4320 hc        1 MOL      0.016594
    154 H72        -8.0960    1.6080   -0.8310 hc        1 MOL      0.016594
    155 H73        -7.0750    3.6260   -2.2790 hc        1 MOL     -0.012552
    156 H74        -7.7160    4.5980   -0.9610 hc        1 MOL     -0.012552
    157 H75        -9.9380    3.8000   -1.3960 hx        1 MOL      0.016194
    158 H76        -9.4580    2.7990   -2.6640 hx        1 MOL      0.016194
    159 H77       -10.2970    5.0700   -3.3480 hn        1 MOL      0.301309
    160 H78        -8.9170    5.7310   -2.8070 hn        1 MOL      0.301309
    161 H79        -8.8740    4.6500   -4.0270 hn        1 MOL      0.301309
    162 N14        -5.0830   -0.5110   -1.1670 n         1 MOL     -0.289660
    163 C49        -5.5340   -1.8330   -1.7050 c3        1 MOL     -0.731646
    164 C50        -6.8970   -2.2680   -1.2120 c         1 MOL      0.504218
    165 O22        -7.1810   -2.3230   -0.0540 o         1 MOL     -0.478929
    166 C51        -4.4910   -2.9660   -1.5160 c3        1 MOL      1.067490
    167 C52        -3.2270   -2.6700   -2.2420 c3        1 MOL     -1.101423
    168 C53        -3.2930   -2.6310   -3.7510 c         1 MOL      1.009368
    169 O23        -4.3410   -2.4480   -4.3970 o         1 MOL     -0.789794
    170 O24        -2.2460   -2.8700   -4.4110 o         1 MOL     -0.789794
    171 H80        -4.4960   -0.4670   -0.3480 hn        1 MOL      0.159875
    172 H81        -5.6520   -1.7600   -2.7830 h1        1 MOL      0.411975
    173 H82        -4.9670   -3.8660   -1.8820 hc        1 MOL     -0.177295
    174 H83        -4.1380   -3.0900   -0.4890 hc        1 MOL     -0.177295
    175 H84        -2.4300   -3.3430   -1.9090 hc        1 MOL      0.222767
    176 H85        -2.8250   -1.6750   -2.0400 hc        1 MOL      0.222767
    177 N15        -7.8690   -2.5330   -2.0590 n         1 MOL     -0.245431
    178 C54        -9.2360   -3.0070   -1.7670 c3        1 MOL     -0.183863
    179 H86        -9.8990   -2.7330   -2.5890 h1        1 MOL      0.090827
    180 H87        -9.2290   -4.0910   -1.6530 h1        1 MOL      0.090827
    181 H88        -9.5930   -2.5470   -0.8450 h1        1 MOL      0.090827
    182 H89        -7.6080   -2.5560   -3.0390 hn        1 MOL      0.223501
    183 Ca1         0.2810   -3.4260   -4.0230 Ca        1 MOL      1.595694
    184 O25         2.5900   -2.6180   -4.9350 oh        1 MOL     -0.798945
    185 H90         3.2670   -2.1130   -4.4910 ho        1 MOL      0.381977
    186 H91         2.6080   -2.3070   -5.8360 ho        1 MOL      0.381977
    187 O26        -0.5280   -1.5130   -6.0600 oh        1 MOL     -0.798945
    188 H92        -0.6320   -2.0900   -6.8220 ho        1 MOL      0.381977
    189 H93        -1.3890   -1.5000   -5.6500 ho        1 MOL      0.381977
    190 O27        -0.0180   -4.3240   -1.3610 oh        1 MOL     -0.798945
    191 H94         0.6230   -4.9710   -1.6580 ho        1 MOL      0.381977
    192 H95        -0.3870   -4.6970   -0.5650 ho        1 MOL      0.381977
@<TRIPOS>BOND
     1    1    2 1   
     2    1    4 1   
     3    1    5 1   
     4    1    6 1   
     5    2    3 2   
     6    2    7 1   
     7    7    8 1   
     8    7   15 1   
     9    8    9 1   
    10    8   11 1   
    11    8   16 1   
    12    9   10 2   
    13    9   19 1   
    14   11   12 1   
    15   11   17 1   
    16   11   18 1   
    17   12   13 1   
    18   12   14 1   
    19   19   20 1   
    20   19   28 1   
    21   20   21 1   
    22   20   23 1   
    23   20   29 1   
    24   21   22 2   
    25   21   41 1   
    26   23   24 1   
    27   23   30 1   
    28   23   31 1   
    29   24   25 1   
    30   24   32 1   
    31   24   33 1   
    32   25   26 1   
    33   25   34 1   
    34   25   35 1   
    35   26   27 1   
    36   26   36 1   
    37   26   37 1   
    38   27   38 1   
    39   27   39 1   
    40   27   40 1   
    41   41   42 1   
    42   41   49 1   
    43   42   43 1   
    44   42   45 1   
    45   42   50 1   
    46   43   44 2   
    47   43   53 1   
    48   45   46 1   
    49   45   51 1   
    50   45   52 1   
    51   46   47 1   
    52   46   48 1   
    53   53   54 1   
    54   53   57 1   
    55   54   55 1   
    56   54   58 1   
    57   54   59 1   
    58   55   56 2   
    59   55   60 1   
    60   60   61 1   
    61   60   68 1   
    62   61   62 1   
    63   61   64 1   
    64   61   69 1   
    65   62   63 2   
    66   62   72 1   
    67   64   65 1   
    68   64   70 1   
    69   64   71 1   
    70   65   66 1   
    71   65   67 1   
    72   72   73 1   
    73   72   76 1   
    74   73   74 1   
    75   73   77 1   
    76   73   78 1   
    77   74   75 2   
    78   74   79 1   
    79   79   80 1   
    80   79   86 1   
    81   80   81 1   
    82   80   83 1   
    83   80   87 1   
    84   81   82 2   
    85   81   93 1   
    86   83   84 1   
    87   83   85 1   
    88   83   88 1   
    89   84   90 1   
    90   84   91 1   
    91   84   92 1   
    92   85   89 1   
    93   93   94 1   
    94   93  101 1   
    95   94   95 1   
    96   94   97 1   
    97   94  102 1   
    98   95   96 2   
    99   95  112 1   
   100   97   98 1   
   101   97   99 1   
   102   97  103 1   
   103   98  100 1   
   104   98  104 1   
   105   98  105 1   
   106   99  106 1   
   107   99  107 1   
   108   99  108 1   
   109  100  109 1   
   110  100  110 1   
   111  100  111 1   
   112  112  113 1   
   113  112  119 1   
   114  113  114 1   
   115  113  116 1   
   116  113  120 1   
   117  114  115 2   
   118  114  126 1   
   119  116  117 1   
   120  116  118 1   
   121  116  121 1   
   122  117  123 1   
   123  117  124 1   
   124  117  125 1   
   125  118  122 1   
   126  126  127 1   
   127  126  133 1   
   128  127  128 1   
   129  127  130 1   
   130  127  134 1   
   131  128  129 2   
   132  128  140 1   
   133  130  131 1   
   134  130  132 1   
   135  130  135 1   
   136  131  137 1   
   137  131  138 1   
   138  131  139 1   
   139  132  136 1   
   140  140  141 1   
   141  140  149 1   
   142  141  142 1   
   143  141  144 1   
   144  141  150 1   
   145  142  143 2   
   146  142  162 1   
   147  144  145 1   
   148  144  151 1   
   149  144  152 1   
   150  145  146 1   
   151  145  153 1   
   152  145  154 1   
   153  146  147 1   
   154  146  155 1   
   155  146  156 1   
   156  147  148 1   
   157  147  157 1   
   158  147  158 1   
   159  148  159 1   
   160  148  160 1   
   161  148  161 1   
   162  162  163 1   
   163  162  171 1   
   164  163  164 1   
   165  163  166 1   
   166  163  172 1   
   167  164  165 2   
   168  164  177 1   
   169  166  167 1   
   170  166  173 1   
   171  166  174 1   
   172  167  168 1   
   173  167  175 1   
   174  167  176 1   
   175  168  169 1   
   176  168  170 1   
   177  177  178 1   
   178  177  182 1   
   179  178  179 1   
   180  178  180 1   
   181  178  181 1   
   182  184  185 1   
   183  184  186 1   
   184  187  188 1   
   185  187  189 1   
   186  190  191 1   
   187  190  192 1   
@<TRIPOS>SUBSTRUCTURE
     1 MOL         1 TEMP              0 ****  ****    0 ROOT
