@<TRIPOS>MOLECULE
MOL
  189   185     1     0     0
SMALL
resp


@<TRIPOS>ATOM
      1 C1          4.4430    4.5770   -2.6940 c3        1 MOL     -0.438091
      2 C2          5.1580    3.6660   -1.6800 c         1 MOL      0.816721
      3 O1          4.5410    3.0300   -0.8450 o         1 MOL     -0.685844
      4 H1          4.8300    4.3810   -3.6940 hc        1 MOL      0.107109
      5 H2          3.3720    4.3730   -2.6740 hc        1 MOL      0.107109
      6 H3          4.6200    5.6210   -2.4350 hc        1 MOL      0.107109
      7 N1          6.4310    3.3160   -1.9630 n         1 MOL     -0.729981
      8 C3          7.1050    2.0740   -1.4850 c3        1 MOL      0.211370
      9 C4          6.2030    0.8570   -1.4820 c         1 MOL      0.214710
     10 O2          5.7060    0.4750   -0.4220 o         1 MOL     -0.435988
     11 C5          7.8650    2.3270   -0.2160 c3        1 MOL     -0.071450
     12 C6          7.1030    3.0600    0.8530 c         1 MOL      0.869477
     13 O3          6.2380    2.4700    1.5590 o         1 MOL     -0.783566
     14 O4          7.4240    4.2680    1.0560 o         1 MOL     -0.783566
     15 H4          6.8970    3.9500   -2.5940 hn        1 MOL      0.336857
     16 H5          7.9510    1.7500   -2.1140 h1        1 MOL      0.027849
     17 H6          8.6960    3.0290   -0.2610 hc        1 MOL     -0.003041
     18 H7          8.2610    1.3890    0.1630 hc        1 MOL     -0.003041
     19 N2          5.9370    0.3200   -2.7030 n         1 MOL     -0.200052
     20 C7          5.2380   -1.0120   -2.9610 c3        1 MOL     -0.022325
     21 C8          5.9420   -2.2660   -2.2750 c         1 MOL      0.356221
     22 O5          6.3860   -3.1270   -2.9570 o         1 MOL     -0.535301
     23 C9          3.7160   -1.0180   -2.7450 c3        1 MOL      0.129531
     24 C10         3.0230   -2.2370   -3.4100 c3        1 MOL      0.061630
     25 C11         3.1690    0.2920   -3.2390 c3        1 MOL     -0.239304
     26 C12         2.7100   -2.2270   -4.9540 c3        1 MOL     -0.042567
     27 H8          6.4040    0.7460   -3.4960 hn        1 MOL      0.222093
     28 H9          5.3350   -1.1780   -4.0350 h1        1 MOL      0.045031
     29 H10         3.5080   -1.1020   -1.6760 hc        1 MOL     -0.024756
     30 H11         2.1140   -2.3970   -2.8400 hc        1 MOL      0.013581
     31 H12         3.5770   -3.1670   -3.2900 hc        1 MOL      0.013581
     32 H13         3.5220    0.5930   -4.2190 hc        1 MOL      0.050937
     33 H14         2.0910    0.0970   -3.3070 hc        1 MOL      0.050937
     34 H15         3.2710    1.0820   -2.4960 hc        1 MOL      0.050937
     35 H16         2.2320   -3.1500   -5.2630 hc        1 MOL     -0.013815
     36 H17         2.0730   -1.3840   -5.2090 hc        1 MOL     -0.013815
     37 H18         3.6190   -2.0980   -5.5530 hc        1 MOL     -0.013815
     38 N3          5.9270   -2.3160   -0.9140 n         1 MOL      0.008344
     39 C13         6.6940   -3.3380   -0.1720 c3        1 MOL     -0.200313
     40 C14         6.0330   -4.6740    0.1730 c         1 MOL      0.673078
     41 O6          6.7230   -5.6680    0.3520 o         1 MOL     -0.614041
     42 C15         7.3700   -2.7550    1.0810 c3        1 MOL     -0.159535
     43 C16         8.1360   -1.4240    0.8290 c         1 MOL      0.726754
     44 O7          8.2800   -0.6530    1.8110 o         1 MOL     -0.695906
     45 O8          8.7670   -1.1630   -0.2380 o         1 MOL     -0.695906
     46 H19         5.4890   -1.5540   -0.4020 hn        1 MOL      0.125090
     47 H20         7.4510   -3.5920   -0.9270 h1        1 MOL      0.113711
     48 H21         8.0800   -3.4650    1.5080 hc        1 MOL      0.043190
     49 H22         6.6260   -2.5420    1.8480 hc        1 MOL      0.043190
     50 N4          4.7340   -4.9060    0.0420 n         1 MOL     -0.547650
     51 C17         3.6730   -3.9740    0.2330 c3        1 MOL      0.095121
     52 C18         2.3760   -4.5960    0.6760 c         1 MOL      0.529088
     53 O9          1.9310   -5.6050    0.1330 o         1 MOL     -0.560380
     54 H23         4.3960   -5.8460   -0.0680 hn        1 MOL      0.301381
     55 H24         3.3840   -3.6700   -0.7710 h1        1 MOL      0.056915
     56 H25         3.9230   -3.0670    0.7900 h1        1 MOL      0.056915
     57 N5          1.7160   -4.0890    1.7830 n         1 MOL     -0.578224
     58 C19         1.9050   -2.8660    2.6120 c3        1 MOL      0.256736
     59 C20         1.9330   -1.5920    1.7260 c         1 MOL      0.313708
     60 O10         2.9630   -0.9550    1.5970 o         1 MOL     -0.628406
     61 C21         3.0120   -3.1310    3.5690 c3        1 MOL     -0.429700
     62 C22         3.2080   -1.8610    4.3550 c         1 MOL      0.819201
     63 O11         2.1930   -1.2970    4.7960 o         1 MOL     -0.711047
     64 O12         4.4000   -1.5240    4.6440 o         1 MOL     -0.711047
     65 H26         0.8870   -4.6040    2.0470 hn        1 MOL      0.301145
     66 H27         0.9620   -2.7290    3.1430 h1        1 MOL      0.046514
     67 H28         3.8880   -3.4110    2.9860 hc        1 MOL      0.114739
     68 H29         2.6850   -3.9190    4.2540 hc        1 MOL      0.114739
     69 N6          0.7970   -1.1490    1.1680 n         1 MOL     -0.232748
     70 C23        -0.5930   -1.6090    1.2600 c3        1 MOL      0.163979
     71 C24        -0.9760   -2.7020    0.2530 c         1 MOL      0.263928
     72 O13        -0.1560   -3.1510   -0.6040 o         1 MOL     -0.454219
     73 H30         0.9260   -0.3620    0.5420 hn        1 MOL      0.244828
     74 H31        -1.3220   -0.8080    1.1600 h1        1 MOL      0.013485
     75 H32        -0.7500   -2.0550    2.2380 h1        1 MOL      0.013485
     76 N7         -2.1920   -3.1730    0.4070 n         1 MOL      0.024819
     77 C25        -2.8220   -4.2490   -0.2860 c3        1 MOL     -0.388766
     78 C26        -3.1730   -3.9580   -1.7620 c         1 MOL      0.564357
     79 O14        -3.3070   -4.9510   -2.4900 o         1 MOL     -0.531064
     80 C27        -4.1000   -4.7970    0.4140 c3        1 MOL      0.222982
     81 C28        -3.8630   -5.2620    1.8700 c3        1 MOL     -0.211934
     82 C29        -5.1780   -5.5070    2.6850 c         1 MOL      0.603320
     83 N8         -5.9490   -6.5550    2.4290 n         1 MOL     -0.779261
     84 O15        -5.4580   -4.5960    3.4870 o         1 MOL     -0.539678
     85 H33        -2.6810   -2.8030    1.2090 hn        1 MOL      0.164221
     86 H34        -2.0440   -5.0040   -0.3710 h1        1 MOL      0.182996
     87 H35        -4.5340   -5.6210   -0.1520 hc        1 MOL      0.005952
     88 H36        -4.8810   -4.0300    0.4370 hc        1 MOL      0.005952
     89 H37        -3.1270   -4.6060    2.3340 hc        1 MOL      0.037645
     90 H38        -3.2680   -6.1730    1.8150 hc        1 MOL      0.037645
     91 H39        -5.6340   -7.2100    1.7220 hn        1 MOL      0.369908
     92 H40        -6.8130   -6.6480    2.9420 hn        1 MOL      0.369908
     93 N9         -3.3140   -2.6980   -2.1980 n         1 MOL     -0.312370
     94 C30        -3.6630   -2.2740   -3.5200 c3        1 MOL     -0.021580
     95 C31        -5.0010   -1.4840   -3.5950 c         1 MOL      0.551580
     96 O16        -5.6300   -1.3070   -4.6690 o         1 MOL     -0.552714
     97 C32        -2.5530   -1.4210   -4.0960 c3        1 MOL      0.109505
     98 C33        -1.4690   -2.2610   -4.7990 c3        1 MOL     -0.234138
     99 C34        -1.8810   -0.5140   -3.0760 c3        1 MOL     -0.234138
    100 H41        -3.1120   -1.9730   -1.5210 hn        1 MOL      0.075884
    101 H42        -3.7890   -3.1410   -4.1660 h1        1 MOL      0.088928
    102 H43        -3.0040   -0.7940   -4.8620 hc        1 MOL      0.020258
    103 H44        -0.9780   -1.6170   -5.5300 hc        1 MOL      0.071464
    104 H45        -0.6640   -2.5740   -4.1350 hc        1 MOL      0.071464
    105 H46        -1.8880   -3.0400   -5.4450 hc        1 MOL      0.071464
    106 H47        -2.5950    0.2210   -2.7090 hc        1 MOL      0.071464
    107 H48        -1.5780   -0.9590   -2.1280 hc        1 MOL      0.071464
    108 H49        -0.9420   -0.0820   -3.4160 hc        1 MOL      0.071464
    109 N10        -5.3890   -0.9610   -2.4290 n         1 MOL     -0.505871
    110 C35        -6.7520   -0.5900   -2.1050 c3        1 MOL      0.224386
    111 C36        -6.9330    0.8980   -1.6760 c         1 MOL      0.443603
    112 O17        -8.0170    1.4570   -1.8860 o         1 MOL     -0.539759
    113 C37        -7.3180   -1.3850   -0.9610 c3        1 MOL     -0.455249
    114 C38        -7.6740   -2.7800   -1.4260 c         1 MOL      0.766750
    115 N11        -8.5450   -2.9420   -2.4310 n         1 MOL     -0.864931
    116 O18        -7.0630   -3.7490   -0.9880 o         1 MOL     -0.568231
    117 H50        -4.6470   -0.9590   -1.7560 hn        1 MOL      0.343312
    118 H51        -7.3800   -0.6900   -2.9890 h1        1 MOL      0.043889
    119 H52        -8.1300   -0.8290   -0.4800 hc        1 MOL      0.136203
    120 H53        -6.5740   -1.5450   -0.1830 hc        1 MOL      0.136203
    121 H54        -8.8720   -2.1170   -2.9120 hn        1 MOL      0.384322
    122 H55        -8.6290   -3.8430   -2.8700 hn        1 MOL      0.384322
    123 N12        -5.9150    1.4650   -1.0640 n         1 MOL     -0.413344
    124 C39        -6.0040    2.8110   -0.5030 c3        1 MOL      0.287680
    125 C40        -4.5830    3.2430    0.0530 c         1 MOL      0.328687
    126 O19        -3.6240    2.4810   -0.0140 o         1 MOL     -0.436079
    127 C41        -7.0110    2.9110    0.5630 c3        1 MOL     -0.348731
    128 C42        -7.0800    1.6160    1.3830 ca        1 MOL      0.028969
    129 C43        -6.0550    1.3580    2.3040 ca        1 MOL     -0.056536
    130 C44        -8.3230    0.9520    1.4540 ca        1 MOL     -0.056536
    131 C45        -6.1680    0.3050    3.2850 ca        1 MOL     -0.386224
    132 C46        -8.4760    0.0150    2.5140 ca        1 MOL     -0.386224
    133 C47        -7.3920   -0.3650    3.3050 ca        1 MOL      0.496028
    134 O20        -7.4980   -1.3110    4.2990 oh        1 MOL     -0.609689
    135 H56        -5.0410    0.9460   -1.0350 hn        1 MOL      0.225734
    136 H57        -6.2800    3.5650   -1.2450 h1        1 MOL      0.043939
    137 H58        -7.9650    3.2170    0.1340 hc        1 MOL      0.111919
    138 H59        -6.7010    3.7030    1.2460 hc        1 MOL      0.111919
    139 H60        -5.1880    1.9900    2.3440 ha        1 MOL      0.126177
    140 H61        -9.1350    1.1800    0.7770 ha        1 MOL      0.126177
    141 H62        -5.3180    0.0810    3.9150 ha        1 MOL      0.177916
    142 H63        -9.3680   -0.5720    2.6380 ha        1 MOL      0.177916
    143 H64        -6.7120   -1.2920    4.8400 ho        1 MOL      0.442196
    144 N13        -4.3220    4.4780    0.4930 n         1 MOL     -0.584935
    145 C48        -3.1720    5.0860    1.2000 c3        1 MOL      0.107812
    146 C49        -1.9770    5.3000    0.3760 c         1 MOL      0.277052
    147 O21        -1.3220    6.2970    0.6800 o         1 MOL     -0.527349
    148 C50        -2.8800    4.2560    2.4490 c3        1 MOL      0.115934
    149 C51        -2.2410    5.0810    3.5520 c3        1 MOL     -0.265446
    150 C52        -1.8800    4.2200    4.7560 c         1 MOL      0.699006
    151 O22        -2.0270    4.7130    5.9010 o         1 MOL     -0.720340
    152 O23        -1.3690    3.0550    4.6000 o         1 MOL     -0.720340
    153 H65        -5.0040    5.1770    0.2300 hn        1 MOL      0.298062
    154 H66        -3.4590    6.0870    1.5130 h1        1 MOL      0.071713
    155 H67        -2.2560    3.4000    2.1930 hc        1 MOL      0.022054
    156 H68        -3.7960    3.8390    2.8640 hc        1 MOL      0.022054
    157 H69        -2.9640    5.8060    3.9370 hc        1 MOL      0.040040
    158 H70        -1.3890    5.6630    3.2100 hc        1 MOL      0.040040
    159 N14        -1.6720    4.4250   -0.5110 n         1 MOL      0.005466
    160 C53        -0.6520    4.5460   -1.5230 c3        1 MOL     -0.049842
    161 C54        -1.0230    5.5540   -2.5990 c         1 MOL      0.465257
    162 O24        -0.2990    6.4280   -3.0790 o         1 MOL     -0.540314
    163 C55        -0.4130    3.1670   -2.1240 c3        1 MOL      0.368676
    164 C56        -0.2030    2.0130   -1.1990 c3        1 MOL      0.200588
    165 C57         1.0090    2.0330   -0.3200 c         1 MOL      0.545995
    166 O25         1.0680    2.8750    0.6150 o         1 MOL     -0.661011
    167 O26         1.9720    1.2080   -0.3750 o         1 MOL     -0.661011
    168 H71        -2.2480    3.5910   -0.4880 hn        1 MOL      0.160828
    169 H72         0.2740    4.9350   -1.1060 h1        1 MOL      0.082308
    170 H73         0.3900    3.2820   -2.8610 hc        1 MOL     -0.150601
    171 H74        -1.2680    2.9950   -2.7800 hc        1 MOL     -0.150601
    172 H75        -0.3930    1.0300   -1.6180 hc        1 MOL     -0.109679
    173 H76        -1.0200    2.2050   -0.4970 hc        1 MOL     -0.109679
    174 N15        -2.2670    5.4280   -2.9610 n         1 MOL     -0.197330
    175 C58        -3.0850    6.3630   -3.7950 c3        1 MOL     -0.370315
    176 H77        -2.8470    6.2120   -4.8480 h1        1 MOL      0.134910
    177 H78        -4.1440    6.1650   -3.6300 h1        1 MOL      0.134910
    178 H79        -2.8590    7.3920   -3.5150 h1        1 MOL      0.134910
    179 H80        -2.7570    4.6550   -2.5320 hn        1 MOL      0.193137
    180 Ca1         3.8470    1.5820    1.2810 Ca        1 MOL      1.838614
    181 O27         5.4190    0.0480    2.7370 oh        1 MOL     -0.900917
    182 H81         5.1150   -0.5380    3.4300 ho        1 MOL      0.434954
    183 H82         6.1920   -0.3890    2.3710 ho        1 MOL      0.434954
    184 O28         2.5720    1.3410    3.6080 oh        1 MOL     -0.900917
    185 H83         2.1150    2.1150    3.9330 ho        1 MOL      0.434954
    186 H84         2.2560    0.6270    4.1610 ho        1 MOL      0.434954
    187 O29         3.6750    4.1380    1.9710 oh        1 MOL     -0.900917
    188 H85         4.2800    4.8630    1.8170 ho        1 MOL      0.434954
    189 H86         2.8050    4.5200    1.9000 ho        1 MOL      0.434954
@<TRIPOS>BOND
     1    1    2 1   
     2    1    4 1   
     3    1    5 1   
     4    1    6 1   
     5    2    3 2   
     6    2    7 1   
     7    7    8 1   
     8    7   15 1   
     9    8    9 1   
    10    8   11 1   
    11    8   16 1   
    12    9   10 2   
    13    9   19 1   
    14   11   12 1   
    15   11   17 1   
    16   11   18 1   
    17   12   13 1   
    18   12   14 1   
    19   19   20 1   
    20   19   27 1   
    21   20   21 1   
    22   20   23 1   
    23   20   28 1   
    24   21   22 2   
    25   21   38 1   
    26   23   24 1   
    27   23   25 1   
    28   23   29 1   
    29   24   26 1   
    30   24   30 1   
    31   24   31 1   
    32   25   32 1   
    33   25   33 1   
    34   25   34 1   
    35   26   35 1   
    36   26   36 1   
    37   26   37 1   
    38   38   39 1   
    39   38   46 1   
    40   39   40 1   
    41   39   42 1   
    42   39   47 1   
    43   40   41 2   
    44   40   50 1   
    45   42   43 1   
    46   42   48 1   
    47   42   49 1   
    48   43   44 1   
    49   43   45 1   
    50   50   51 1   
    51   50   54 1   
    52   51   52 1   
    53   51   55 1   
    54   51   56 1   
    55   52   53 2   
    56   52   57 1   
    57   57   58 1   
    58   57   65 1   
    59   58   59 1   
    60   58   61 1   
    61   58   66 1   
    62   59   60 2   
    63   59   69 1   
    64   61   62 1   
    65   61   67 1   
    66   61   68 1   
    67   62   63 1   
    68   62   64 1   
    69   69   70 1   
    70   69   73 1   
    71   70   71 1   
    72   70   74 1   
    73   70   75 1   
    74   71   72 2   
    75   71   76 1   
    76   76   77 1   
    77   76   85 1   
    78   77   78 1   
    79   77   80 1   
    80   77   86 1   
    81   78   79 2   
    82   78   93 1   
    83   80   81 1   
    84   80   87 1   
    85   80   88 1   
    86   81   82 1   
    87   81   89 1   
    88   81   90 1   
    89   82   83 1   
    90   82   84 2   
    91   83   91 1   
    92   83   92 1   
    93   93   94 1   
    94   93  100 1   
    95   94   95 1   
    96   94   97 1   
    97   94  101 1   
    98   95   96 2   
    99   95  109 1   
   100   97   98 1   
   101   97   99 1   
   102   97  102 1   
   103   98  103 1   
   104   98  104 1   
   105   98  105 1   
   106   99  106 1   
   107   99  107 1   
   108   99  108 1   
   109  109  110 1   
   110  109  117 1   
   111  110  111 1   
   112  110  113 1   
   113  110  118 1   
   114  111  112 2   
   115  111  123 1   
   116  113  114 1   
   117  113  119 1   
   118  113  120 1   
   119  114  115 1   
   120  114  116 2   
   121  115  121 1   
   122  115  122 1   
   123  123  124 1   
   124  123  135 1   
   125  124  125 1   
   126  124  127 1   
   127  124  136 1   
   128  125  126 2   
   129  125  144 1   
   130  127  128 1   
   131  127  137 1   
   132  127  138 1   
   133  128  129 ar  
   134  128  130 ar  
   135  129  131 ar  
   136  129  139 1   
   137  130  132 ar  
   138  130  140 1   
   139  131  133 ar  
   140  131  141 1   
   141  132  133 ar  
   142  132  142 1   
   143  133  134 1   
   144  134  143 1   
   145  144  145 1   
   146  144  153 1   
   147  145  146 1   
   148  145  148 1   
   149  145  154 1   
   150  146  147 2   
   151  146  159 1   
   152  148  149 1   
   153  148  155 1   
   154  148  156 1   
   155  149  150 1   
   156  149  157 1   
   157  149  158 1   
   158  150  151 1   
   159  150  152 1   
   160  159  160 1   
   161  159  168 1   
   162  160  161 1   
   163  160  163 1   
   164  160  169 1   
   165  161  162 2   
   166  161  174 1   
   167  163  164 1   
   168  163  170 1   
   169  163  171 1   
   170  164  165 1   
   171  164  172 1   
   172  164  173 1   
   173  165  166 1   
   174  165  167 1   
   175  174  175 1   
   176  174  179 1   
   177  175  176 1   
   178  175  177 1   
   179  175  178 1   
   180  181  182 1   
   181  181  183 1   
   182  184  185 1   
   183  184  186 1   
   184  187  188 1   
   185  187  189 1   
@<TRIPOS>SUBSTRUCTURE
     1 MOL         1 TEMP              0 ****  ****    0 ROOT
