@<TRIPOS>MOLECULE
MOL
  191   184     1     0     0
SMALL
resp


@<TRIPOS>ATOM
      1 C1          3.4280    3.2270    2.7810 c3        1 MOL     -0.525963
      2 C2          4.4010    2.9020    1.6000 c         1 MOL      0.679621
      3 O1          4.2020    1.8840    0.9300 o         1 MOL     -0.552232
      4 H1          3.7220    2.6550    3.6610 hc        1 MOL      0.144781
      5 H2          3.4740    4.2910    3.0090 hc        1 MOL      0.144781
      6 H3          2.4100    2.9590    2.4980 hc        1 MOL      0.144781
      7 N1          5.5610    3.6160    1.4980 n         1 MOL     -0.578561
      8 C3          6.6740    3.2340    0.5950 c3        1 MOL      0.075400
      9 C4          7.1380    1.8590    0.7100 c         1 MOL      0.558379
     10 O2          7.4610    1.1880   -0.2570 o         1 MOL     -0.543511
     11 C5          6.4260    3.7820   -0.9100 c3        1 MOL     -0.307903
     12 C6          5.9780    5.2790   -1.0180 c         1 MOL      0.773069
     13 O3          6.3520    6.1700   -0.2350 o         1 MOL     -0.717905
     14 O4          5.2370    5.5380   -1.9750 o         1 MOL     -0.717905
     15 H4          5.6750    4.4220    2.0960 hn        1 MOL      0.332807
     16 H5          7.5220    3.7710    1.0000 h1        1 MOL      0.056971
     17 H6          5.6250    3.1680   -1.3380 hc        1 MOL      0.083104
     18 H7          7.3010    3.6490   -1.5350 hc        1 MOL      0.083104
     19 N2          7.0870    1.2450    1.8880 n         1 MOL     -0.397949
     20 C7          7.5580   -0.1440    2.1880 c3        1 MOL     -0.077323
     21 C8          6.4580   -1.2720    1.9110 c         1 MOL      0.489682
     22 O5          6.7340   -2.4530    2.2900 o         1 MOL     -0.575411
     23 C9          8.2830   -0.3320    3.5590 c3        1 MOL      0.052443
     24 C10         9.6360    0.4280    3.5230 c3        1 MOL     -0.067793
     25 C11        10.2040    0.7900    4.9270 c3        1 MOL      0.144275
     26 C12        10.5350   -0.4470    5.8030 c3        1 MOL     -0.011263
     27 N3         11.2780   -0.0350    7.0010 n4        1 MOL     -0.242091
     28 H8          6.7170    1.8030    2.6450 hn        1 MOL      0.231049
     29 H9          8.3330   -0.3820    1.4600 h1        1 MOL      0.142298
     30 H10         8.4620   -1.3890    3.7360 hc        1 MOL      0.009819
     31 H11         7.7470   -0.0370    4.4600 hc        1 MOL      0.009819
     32 H12         9.3760    1.4070    3.1040 hc        1 MOL      0.031573
     33 H13        10.4380   -0.0760    2.9860 hc        1 MOL      0.031573
     34 H14         9.5010    1.3980    5.5030 hc        1 MOL     -0.023089
     35 H15        11.0600    1.4490    4.7600 hc        1 MOL     -0.023089
     36 H16        11.2060   -1.0740    5.2110 hx        1 MOL      0.075575
     37 H17         9.5850   -0.9240    6.0400 hx        1 MOL      0.075575
     38 H18        11.4480   -0.8810    7.5370 hn        1 MOL      0.231425
     39 H19        12.1030    0.4700    6.7200 hn        1 MOL      0.231425
     40 H20        10.6550    0.4910    7.5980 hn        1 MOL      0.231425
     41 N4          5.2640   -0.9970    1.4180 n         1 MOL     -0.295862
     42 C13         4.2710   -2.0430    1.1400 c3        1 MOL     -0.021845
     43 C14         4.8580   -3.0430    0.0570 c         1 MOL      0.642754
     44 O6          5.5650   -2.6360   -0.8450 o         1 MOL     -0.484773
     45 C15         2.9220   -1.4330    0.8360 c3        1 MOL     -0.078520
     46 C16         1.7210   -2.3750    0.6520 c         1 MOL      0.602116
     47 O7          1.8200   -3.1060   -0.3670 o         1 MOL     -0.667960
     48 O8          0.7100   -2.4440    1.3750 o         1 MOL     -0.667960
     49 H21         4.9540   -0.0380    1.3690 hn        1 MOL      0.243886
     50 H22         4.1860   -2.5710    2.0930 h1        1 MOL      0.032946
     51 H23         2.9500   -0.8070   -0.0550 hc        1 MOL      0.080358
     52 H24         2.6880   -0.7400    1.6550 hc        1 MOL      0.080358
     53 N5          4.5270   -4.3660    0.2450 n         1 MOL     -0.468058
     54 C17         4.9280   -5.4850   -0.6280 c3        1 MOL     -0.013118
     55 C18         4.5620   -5.3890   -2.1170 c         1 MOL      0.453268
     56 O9          5.0900   -6.0840   -3.0110 o         1 MOL     -0.544140
     57 H25         3.9170   -4.5600    1.0280 hn        1 MOL      0.288768
     58 H26         4.5350   -6.4430   -0.3050 h1        1 MOL      0.079743
     59 H27         6.0170   -5.5900   -0.5850 h1        1 MOL      0.079743
     60 N6          3.6500   -4.4360   -2.4620 n         1 MOL     -0.148293
     61 C19         3.3080   -3.8870   -3.8400 c3        1 MOL     -0.013470
     62 C20         3.4140   -2.3400   -3.9130 c         1 MOL      0.371425
     63 O10         3.3470   -1.7530   -5.0400 o         1 MOL     -0.526516
     64 C21         2.0380   -4.6080   -4.2960 c3        1 MOL     -0.252314
     65 C22         0.7960   -3.7750   -3.9890 c         1 MOL      0.730159
     66 N7          0.4370   -2.9270   -4.9060 n         1 MOL     -0.723565
     67 O11         0.1000   -3.9040   -2.9880 o         1 MOL     -0.704679
     68 H28         3.1470   -3.9770   -1.7150 hn        1 MOL      0.030368
     69 H29         4.1050   -4.1320   -4.5440 h1        1 MOL      0.148274
     70 H30         1.9220   -5.6020   -3.8730 hc        1 MOL      0.090156
     71 H31         1.9650   -4.7370   -5.3840 hc        1 MOL      0.090156
     72 H32         1.0390   -2.6640   -5.6670 hn        1 MOL      0.338965
     73 H33        -0.3720   -2.3220   -4.8440 hn        1 MOL      0.338965
     74 N8          3.5410   -1.5610   -2.8200 n         1 MOL      0.018097
     75 C23         3.6340   -0.1080   -2.8620 c3        1 MOL     -0.222065
     76 C24         2.4040    0.6590   -2.5850 c         1 MOL      0.840411
     77 O12         1.3620    0.2520   -3.0260 o         1 MOL     -0.693174
     78 H34         3.5610   -1.9020   -1.8670 hn        1 MOL      0.002550
     79 H35         3.9120    0.2580   -3.8530 h1        1 MOL      0.101871
     80 H36         4.4150    0.2940   -2.2150 h1        1 MOL      0.101871
     81 N9          2.4830    1.6850   -1.7520 n         1 MOL     -0.571652
     82 C25         1.4780    2.7070   -1.6460 c3        1 MOL      0.009887
     83 C26         0.3460    2.2960   -0.6430 c         1 MOL      0.536152
     84 O13         0.6060    1.8640    0.4790 o         1 MOL     -0.517084
     85 C27         2.0780    4.0650   -1.3650 c3        1 MOL     -0.017274
     86 C28         1.0240    5.1510   -1.2290 ca        1 MOL      0.026091
     87 C29         0.0710    5.3730   -2.2970 ca        1 MOL     -0.141033
     88 C30         1.0600    6.0480   -0.1370 ca        1 MOL     -0.141033
     89 C31        -0.9150    6.3190   -2.2080 ca        1 MOL     -0.250687
     90 C32         0.0550    7.0670   -0.0820 ca        1 MOL     -0.250687
     91 C33        -0.9430    7.1720   -1.0490 ca        1 MOL      0.370180
     92 O14        -1.9180    8.0270   -0.8250 oh        1 MOL     -0.516724
     93 H37         3.3620    1.9080   -1.3210 hn        1 MOL      0.314312
     94 H38         1.0550    2.8590   -2.6410 h1        1 MOL      0.057266
     95 H39         2.8130    4.2710   -2.1500 hc        1 MOL      0.076675
     96 H40         2.6160    4.0350   -0.4130 hc        1 MOL      0.076675
     97 H41         0.1000    4.6600   -3.1050 ha        1 MOL      0.137021
     98 H42         1.9180    6.1230    0.5110 ha        1 MOL      0.137021
     99 H43        -1.6250    6.4480   -3.0080 ha        1 MOL      0.133885
    100 H44         0.0610    7.8440    0.6730 ha        1 MOL      0.133885
    101 H45        -1.8790    8.4930    0.0080 ho        1 MOL      0.393924
    102 N10        -0.9010    2.5680   -1.0970 n         1 MOL     -0.611645
    103 C34        -2.1790    2.4300   -0.3320 c3        1 MOL      0.385002
    104 C35        -3.1850    1.4290   -0.9360 c         1 MOL      0.057001
    105 O15        -4.1960    1.0150   -0.3420 o         1 MOL     -0.461598
    106 C36        -2.7770    3.8390   -0.1330 c3        1 MOL      0.019039
    107 C37        -3.6900    3.9060    1.1880 c3        1 MOL     -0.110634
    108 C38        -3.6480    4.3080   -1.2930 c3        1 MOL     -0.267622
    109 C39        -2.8070    3.7530    2.4870 c3        1 MOL     -0.083465
    110 H46        -0.9510    3.1180   -1.9410 hn        1 MOL      0.260100
    111 H47        -1.9180    2.0610    0.6640 h1        1 MOL      0.093841
    112 H48        -1.9190    4.5220   -0.1030 hc        1 MOL      0.031850
    113 H49        -4.4810    3.1670    1.3280 hc        1 MOL      0.070242
    114 H50        -4.2500    4.8430    1.1970 hc        1 MOL      0.070242
    115 H51        -4.6200    3.8220   -1.3350 hc        1 MOL      0.069457
    116 H52        -3.9170    5.3510   -1.0980 hc        1 MOL      0.069457
    117 H53        -3.1280    4.1740   -2.2430 hc        1 MOL      0.069457
    118 H54        -3.3890    4.0920    3.3500 hc        1 MOL      0.025528
    119 H55        -2.4100    2.7590    2.6890 hc        1 MOL      0.025528
    120 H56        -1.9430    4.4110    2.4120 hc        1 MOL      0.025528
    121 N11        -2.9680    0.9610   -2.1540 n         1 MOL     -0.044191
    122 C40        -3.8330    0.0510   -2.8960 c3        1 MOL     -0.052131
    123 C41        -5.3020    0.4920   -3.0670 c         1 MOL      0.285148
    124 O16        -6.1310   -0.3340   -3.5050 o         1 MOL     -0.449737
    125 C42        -3.1110   -0.2640   -4.2200 c3        1 MOL      0.030517
    126 O17        -1.7230   -0.6430   -3.9410 oh        1 MOL     -0.493148
    127 H57        -2.1260    1.2240   -2.6390 hn        1 MOL      0.162231
    128 H58        -3.7710   -0.8810   -2.3240 h1        1 MOL      0.154450
    129 H59        -3.1880    0.5650   -4.9280 h1        1 MOL      0.066562
    130 H60        -3.5850   -1.1490   -4.6420 h1        1 MOL      0.066562
    131 H61        -1.1330   -0.0900   -4.4530 ho        1 MOL      0.403749
    132 N12        -5.7590    1.7170   -2.6730 n         1 MOL     -0.065677
    133 C43        -7.1130    2.1990   -2.4950 c3        1 MOL      0.036302
    134 C44        -7.8350    1.0850   -1.6320 c         1 MOL      0.498388
    135 O18        -9.0020    0.8180   -1.8770 o         1 MOL     -0.519834
    136 C45        -7.8260    2.5820   -3.8600 c3        1 MOL     -0.202169
    137 H62        -5.0300    2.4080   -2.5720 hn        1 MOL      0.103669
    138 H63        -6.9190    3.1900   -2.0870 h1        1 MOL      0.082096
    139 H64        -7.3120    3.4290   -4.2970 hc        1 MOL      0.064051
    140 H65        -7.7500    1.7390   -4.5510 hc        1 MOL      0.064051
    141 H66        -8.8510    2.9010   -3.6830 hc        1 MOL      0.064051
    142 N13        -7.1770    0.4970   -0.6760 n         1 MOL     -0.535730
    143 C46        -7.8140   -0.5630    0.1740 c3        1 MOL      0.570245
    144 C47        -7.8320   -0.3600    1.6920 c         1 MOL      0.172773
    145 O19        -6.8570    0.2280    2.2700 o         1 MOL     -0.404090
    146 C48        -6.9640   -1.8280   -0.2460 c3        1 MOL     -0.240349
    147 H67        -6.1920    0.6130   -0.4930 hn        1 MOL      0.188698
    148 H68        -8.8540   -0.7030   -0.1160 h1        1 MOL     -0.067584
    149 H69        -6.0190   -1.7260    0.2930 hc        1 MOL      0.061084
    150 H70        -7.4370   -2.7430    0.1050 hc        1 MOL      0.061084
    151 H71        -6.9300   -1.9520   -1.3270 hc        1 MOL      0.061084
    152 N14        -8.8520   -0.9510    2.3760 n         1 MOL     -0.370482
    153 C49        -9.1030   -0.9980    3.8640 c3        1 MOL     -0.005825
    154 C50        -8.7420    0.2640    4.7160 c         1 MOL      0.418455
    155 O20        -8.0340    0.2540    5.7210 o         1 MOL     -0.439665
    156 C51        -8.6100   -2.3290    4.3240 c3        1 MOL      0.131584
    157 C52        -7.0620   -2.4880    4.3770 c3        1 MOL     -0.291192
    158 C53        -6.6650   -3.8470    5.0140 c         1 MOL      0.744335
    159 O21        -6.3100   -3.9680    6.2130 o         1 MOL     -0.658894
    160 O22        -6.6440   -4.8390    4.2570 o         1 MOL     -0.658894
    161 H72        -9.4490   -1.4980    1.7670 hn        1 MOL      0.290448
    162 H73       -10.1880   -1.1070    3.9040 h1        1 MOL      0.027580
    163 H74        -8.9620   -3.1360    3.6730 hc        1 MOL     -0.013025
    164 H75        -8.9910   -2.6320    5.2980 hc        1 MOL     -0.013025
    165 H76        -6.6970   -1.6310    4.9430 hc        1 MOL      0.070426
    166 H77        -6.7560   -2.5010    3.3360 hc        1 MOL      0.070426
    167 N15        -9.3560    1.3710    4.2560 n         1 MOL     -0.309513
    168 C54        -9.1220    2.7340    4.7800 c3        1 MOL     -0.025252
    169 H78        -8.5370    3.3040    4.0580 h1        1 MOL      0.056943
    170 H79       -10.0790    3.2300    4.9450 h1        1 MOL      0.056943
    171 H80        -8.5770    2.6730    5.7210 h1        1 MOL      0.056943
    172 H81        -9.9270    1.2620    3.4310 hn        1 MOL      0.243847
    173 Ca1        -0.7070   -3.7870   -0.4750 Ca        1 MOL      1.784351
    174 O23        -2.1450   -1.7050    0.6730 oh        1 MOL     -0.830342
    175 H82        -3.0460   -1.4050    0.7730 ho        1 MOL      0.416301
    176 H83        -1.6170   -1.0950    1.1990 ho        1 MOL      0.416301
    177 O24         0.7880   -5.8780    0.6090 oh        1 MOL     -0.830342
    178 H84         0.8410   -6.0660    1.5540 ho        1 MOL      0.416301
    179 H85         1.0900   -6.6700    0.1810 ho        1 MOL      0.416301
    180 O25        -0.2840   -1.3320   -1.6340 oh        1 MOL     -0.830342
    181 H86        -0.9010   -1.1930   -2.3580 ho        1 MOL      0.416301
    182 H87         0.5280   -0.9250   -1.9350 ho        1 MOL      0.416301
    183 O26        -1.5600   -5.0250    1.8240 oh        1 MOL     -0.830342
    184 H88        -1.4120   -5.9470    2.0320 ho        1 MOL      0.416301
    185 H89        -2.0010   -4.6760    2.5940 ho        1 MOL      0.416301
    186 O27        -2.8230   -3.3300   -2.1190 oh        1 MOL     -0.830342
    187 H90        -3.7430   -3.5540   -2.2160 ho        1 MOL      0.416301
    188 H91        -2.4840   -3.3010   -3.0110 ho        1 MOL      0.416301
    189 O28        -1.4420   -6.3370   -1.6120 oh        1 MOL     -0.830342
    190 H92        -0.8810   -7.0120   -1.2240 ho        1 MOL      0.416301
    191 H93        -1.6220   -6.6530   -2.4910 ho        1 MOL      0.416301
@<TRIPOS>BOND
     1    1    2 1   
     2    1    4 1   
     3    1    5 1   
     4    1    6 1   
     5    2    3 2   
     6    2    7 1   
     7    7    8 1   
     8    7   15 1   
     9    8    9 1   
    10    8   11 1   
    11    8   16 1   
    12    9   10 2   
    13    9   19 1   
    14   11   12 1   
    15   11   17 1   
    16   11   18 1   
    17   12   13 1   
    18   12   14 1   
    19   19   20 1   
    20   19   28 1   
    21   20   21 1   
    22   20   23 1   
    23   20   29 1   
    24   21   22 2   
    25   21   41 1   
    26   23   24 1   
    27   23   30 1   
    28   23   31 1   
    29   24   25 1   
    30   24   32 1   
    31   24   33 1   
    32   25   26 1   
    33   25   34 1   
    34   25   35 1   
    35   26   27 1   
    36   26   36 1   
    37   26   37 1   
    38   27   38 1   
    39   27   39 1   
    40   27   40 1   
    41   41   42 1   
    42   41   49 1   
    43   42   43 1   
    44   42   45 1   
    45   42   50 1   
    46   43   44 2   
    47   43   53 1   
    48   45   46 1   
    49   45   51 1   
    50   45   52 1   
    51   46   47 1   
    52   46   48 1   
    53   53   54 1   
    54   53   57 1   
    55   54   55 1   
    56   54   58 1   
    57   54   59 1   
    58   55   56 2   
    59   55   60 1   
    60   60   61 1   
    61   60   68 1   
    62   61   62 1   
    63   61   64 1   
    64   61   69 1   
    65   62   63 2   
    66   62   74 1   
    67   64   65 1   
    68   64   70 1   
    69   64   71 1   
    70   65   66 1   
    71   65   67 2   
    72   66   72 1   
    73   66   73 1   
    74   74   75 1   
    75   74   78 1   
    76   75   76 1   
    77   75   79 1   
    78   75   80 1   
    79   76   77 2   
    80   76   81 1   
    81   81   82 1   
    82   81   93 1   
    83   82   83 1   
    84   82   85 1   
    85   82   94 1   
    86   83   84 2   
    87   83  102 1   
    88   85   86 1   
    89   85   95 1   
    90   85   96 1   
    91   86   87 ar  
    92   86   88 ar  
    93   87   89 ar  
    94   87   97 1   
    95   88   90 ar  
    96   88   98 1   
    97   89   91 ar  
    98   89   99 1   
    99   90   91 ar  
   100   90  100 1   
   101   91   92 1   
   102   92  101 1   
   103  102  103 1   
   104  102  110 1   
   105  103  104 1   
   106  103  106 1   
   107  103  111 1   
   108  104  105 2   
   109  104  121 1   
   110  106  107 1   
   111  106  108 1   
   112  106  112 1   
   113  107  109 1   
   114  107  113 1   
   115  107  114 1   
   116  108  115 1   
   117  108  116 1   
   118  108  117 1   
   119  109  118 1   
   120  109  119 1   
   121  109  120 1   
   122  121  122 1   
   123  121  127 1   
   124  122  123 1   
   125  122  125 1   
   126  122  128 1   
   127  123  124 2   
   128  123  132 1   
   129  125  126 1   
   130  125  129 1   
   131  125  130 1   
   132  126  131 1   
   133  132  133 1   
   134  132  137 1   
   135  133  134 1   
   136  133  136 1   
   137  133  138 1   
   138  134  135 2   
   139  134  142 1   
   140  136  139 1   
   141  136  140 1   
   142  136  141 1   
   143  142  143 1   
   144  142  147 1   
   145  143  144 1   
   146  143  146 1   
   147  143  148 1   
   148  144  145 2   
   149  144  152 1   
   150  146  149 1   
   151  146  150 1   
   152  146  151 1   
   153  152  153 1   
   154  152  161 1   
   155  153  154 1   
   156  153  156 1   
   157  153  162 1   
   158  154  155 2   
   159  154  167 1   
   160  156  157 1   
   161  156  163 1   
   162  156  164 1   
   163  157  158 1   
   164  157  165 1   
   165  157  166 1   
   166  158  159 1   
   167  158  160 1   
   168  167  168 1   
   169  167  172 1   
   170  168  169 1   
   171  168  170 1   
   172  168  171 1   
   173  174  175 1   
   174  174  176 1   
   175  177  178 1   
   176  177  179 1   
   177  180  181 1   
   178  180  182 1   
   179  183  184 1   
   180  183  185 1   
   181  186  187 1   
   182  186  188 1   
   183  189  190 1   
   184  189  191 1   
@<TRIPOS>SUBSTRUCTURE
     1 MOL         1 TEMP              0 ****  ****    0 ROOT
