@<TRIPOS>MOLECULE
MOL
  191   184     1     0     0
SMALL
resp


@<TRIPOS>ATOM
      1 C1          4.4780    2.3840    1.9170 c3        1 MOL     -0.151123
      2 C2          5.5670    2.4620    0.7630 c         1 MOL      0.491959
      3 O1          5.1980    2.2940   -0.4410 o         1 MOL     -0.454561
      4 H1          3.6890    3.1090    1.7210 hc        1 MOL      0.036159
      5 H2          4.0510    1.3810    1.9470 hc        1 MOL      0.036159
      6 H3          4.9470    2.6080    2.8750 hc        1 MOL      0.036159
      7 N1          6.8060    2.7720    1.1120 n         1 MOL     -0.417000
      8 C3          7.9980    2.6970    0.1880 c3        1 MOL      0.077018
      9 C4          8.2610    1.2120   -0.3630 c         1 MOL      0.307765
     10 O2          8.5910    1.0110   -1.5350 o         1 MOL     -0.467461
     11 C5          7.8530    3.7430   -0.9080 c3        1 MOL     -0.129265
     12 C6          7.4800    5.1550   -0.3890 c         1 MOL      0.647855
     13 O3          6.2600    5.5530   -0.2530 o         1 MOL     -0.641924
     14 O4          8.4910    5.8830   -0.0940 o         1 MOL     -0.641924
     15 H4          6.9530    2.9060    2.1010 hn        1 MOL      0.295540
     16 H5          8.9180    2.9420    0.7140 h1        1 MOL      0.045715
     17 H6          7.0390    3.4190   -1.5630 hc        1 MOL      0.053274
     18 H7          8.6980    3.9270   -1.5620 hc        1 MOL      0.053274
     19 N2          7.8360    0.1930    0.4270 n         1 MOL     -0.238081
     20 C7          8.1060   -1.2100    0.0200 c3        1 MOL      0.165095
     21 C8          6.8260   -1.9490   -0.3330 c         1 MOL      0.621002
     22 O5          6.8520   -3.1540   -0.5450 o         1 MOL     -0.621820
     23 C9          8.8320   -1.8090    1.1570 c3        1 MOL      0.000121
     24 C10        10.0870   -1.0880    1.5740 c3        1 MOL      0.118000
     25 C11        10.9110   -2.1280    2.4040 c3        1 MOL     -0.271664
     26 C12        12.3900   -1.7180    2.6240 c3        1 MOL     -0.149730
     27 N3         13.0810   -2.6580    3.6410 n4        1 MOL     -0.131605
     28 H8          7.4800    0.4590    1.3360 hn        1 MOL      0.155550
     29 H9          8.7110   -1.2720   -0.8820 h1        1 MOL      0.050259
     30 H10         9.0570   -2.8560    0.9270 hc        1 MOL     -0.024243
     31 H11         8.1970   -1.8310    2.0470 hc        1 MOL     -0.024243
     32 H12         9.8810   -0.1130    2.0100 hc        1 MOL     -0.000126
     33 H13        10.7000   -0.8980    0.6950 hc        1 MOL     -0.000126
     34 H14        11.0210   -2.9560    1.6960 hc        1 MOL      0.130492
     35 H15        10.3800   -2.2210    3.3500 hc        1 MOL      0.130492
     36 H16        12.3750   -0.7190    3.0650 hx        1 MOL      0.146923
     37 H17        12.9450   -1.9180    1.7180 hx        1 MOL      0.146923
     38 H18        14.0830   -2.4980    3.6570 hn        1 MOL      0.217171
     39 H19        12.7170   -2.4850    4.5680 hn        1 MOL      0.217171
     40 H20        12.9320   -3.6330    3.4290 hn        1 MOL      0.217171
     41 N4          5.6560   -1.3440   -0.3150 n         1 MOL     -0.500234
     42 C13         4.3600   -2.0160   -0.4910 c3        1 MOL     -0.064106
     43 C14         3.9530   -1.8320   -1.8970 c         1 MOL      0.611158
     44 O6          4.1140   -0.7740   -2.4310 o         1 MOL     -0.451757
     45 C15         3.3100   -1.4700    0.4720 c3        1 MOL     -0.018641
     46 C16         2.0350   -2.3130    0.4670 c         1 MOL      0.627079
     47 O7          1.1960   -1.9970    1.3480 o         1 MOL     -0.724571
     48 O8          1.8690   -3.1990   -0.3490 o         1 MOL     -0.724571
     49 H21         5.6760   -0.3420   -0.2930 hn        1 MOL      0.242432
     50 H22         4.4560   -3.0640   -0.2090 h1        1 MOL      0.132712
     51 H23         3.0740   -0.4260    0.2630 hc        1 MOL      0.039751
     52 H24         3.8170   -1.6110    1.4230 hc        1 MOL      0.039751
     53 N5          3.4870   -2.8860   -2.6070 n         1 MOL     -0.471076
     54 C17         2.8770   -2.8830   -3.9540 c3        1 MOL     -0.021969
     55 C18         1.6630   -1.9610   -4.0890 c         1 MOL      0.340935
     56 O9          1.6060   -1.2630   -5.1040 o         1 MOL     -0.458065
     57 H25         3.3920   -3.7240   -2.0510 hn        1 MOL      0.242468
     58 H26         2.5630   -3.8980   -4.2050 h1        1 MOL      0.079124
     59 H27         3.6520   -2.5630   -4.6530 h1        1 MOL      0.079124
     60 N6          0.7920   -1.8220   -3.0370 n         1 MOL     -0.374476
     61 C19        -0.3790   -0.8480   -3.1050 c3        1 MOL     -0.183669
     62 C20         0.0100    0.6330   -2.8850 c         1 MOL      0.570277
     63 O10        -0.7350    1.5480   -3.1990 o         1 MOL     -0.515926
     64 C21        -1.2920   -1.2100   -1.9130 c3        1 MOL     -0.576929
     65 C22        -1.8730   -2.5700   -2.0430 c         1 MOL      0.911061
     66 N7         -2.7710   -2.7880   -2.9370 n         1 MOL     -0.785330
     67 O11        -1.3900   -3.4420   -1.3750 o         1 MOL     -0.776644
     68 H28         0.9730   -2.4090   -2.2400 hn        1 MOL      0.540682
     69 H29        -0.9030   -0.9830   -4.0530 h1        1 MOL      0.158291
     70 H30        -2.0640   -0.4370   -1.8200 hc        1 MOL      0.191222
     71 H31        -0.7360   -1.1200   -0.9780 hc        1 MOL      0.191222
     72 H32        -3.0330   -1.9780   -3.4680 hn        1 MOL      0.371558
     73 H33        -3.2970   -3.6490   -2.8770 hn        1 MOL      0.371558
     74 N8          1.2110    0.8570   -2.2470 n         1 MOL     -0.179541
     75 C23         1.8110    2.1090   -1.9800 c3        1 MOL      0.009914
     76 C24         1.1060    2.9840   -0.8800 c         1 MOL      0.623676
     77 O12         0.8270    2.5310    0.2010 o         1 MOL     -0.522584
     78 H34         1.7060    0.0390   -1.9050 hn        1 MOL      0.133955
     79 H35         1.7480    2.6020   -2.9570 h1        1 MOL      0.047872
     80 H36         2.8580    1.9550   -1.7120 h1        1 MOL      0.047872
     81 N9          0.7060    4.2130   -1.2860 n         1 MOL     -0.697703
     82 C25        -0.3000    5.1100   -0.6430 c3        1 MOL      0.307901
     83 C26        -1.7190    4.5030   -0.2320 c         1 MOL      0.313243
     84 O13        -2.7120    5.1510   -0.5160 o         1 MOL     -0.457835
     85 C27         0.2880    5.8370    0.6320 c3        1 MOL     -0.058162
     86 C28        -0.5810    6.8850    1.2510 ca        1 MOL     -0.129218
     87 C29        -1.0230    7.9540    0.4390 ca        1 MOL     -0.046243
     88 C30        -1.1280    6.7280    2.5090 ca        1 MOL     -0.046243
     89 C31        -1.9080    8.8960    0.9410 ca        1 MOL     -0.304035
     90 C32        -1.9910    7.6610    3.0410 ca        1 MOL     -0.304035
     91 C33        -2.3970    8.7650    2.2370 ca        1 MOL      0.401065
     92 O14        -3.0810    9.8080    2.8330 oh        1 MOL     -0.524532
     93 H37         0.8240    4.4260   -2.2660 hn        1 MOL      0.354011
     94 H38        -0.5790    5.8900   -1.3580 h1        1 MOL      0.043952
     95 H39         1.2180    6.3380    0.3990 hc        1 MOL      0.079866
     96 H40         0.5300    5.1950    1.4790 hc        1 MOL      0.079866
     97 H41        -0.6060    8.0650   -0.5510 ha        1 MOL      0.109677
     98 H42        -0.8290    5.9700    3.2240 ha        1 MOL      0.109677
     99 H43        -2.3970    9.6510    0.3430 ha        1 MOL      0.157295
    100 H44        -2.3310    7.6280    4.0610 ha        1 MOL      0.157295
    101 H45        -3.0350    9.7680    3.7930 ho        1 MOL      0.363308
    102 N10        -1.7200    3.3210    0.4940 n         1 MOL     -0.196497
    103 C34        -2.8160    2.4060    0.8590 c3        1 MOL     -0.168528
    104 C35        -3.7280    1.8560   -0.2330 c         1 MOL      0.436248
    105 O15        -4.2740    0.7390   -0.1680 o         1 MOL     -0.560237
    106 C36        -3.5790    3.0100    2.1100 c3        1 MOL      0.096275
    107 C37        -2.6920    3.3260    3.3160 c3        1 MOL     -0.091509
    108 C38        -4.7390    2.1100    2.5700 c3        1 MOL     -0.220518
    109 C39        -3.4040    4.2980    4.3060 c3        1 MOL     -0.253276
    110 H46        -0.7990    2.9270    0.6280 hn        1 MOL      0.205772
    111 H47        -2.3510    1.5260    1.3120 h1        1 MOL      0.134619
    112 H48        -4.0100    3.9220    1.6960 hc        1 MOL      0.062570
    113 H49        -1.7410    3.7740    3.0200 hc        1 MOL      0.052589
    114 H50        -2.4720    2.4160    3.8930 hc        1 MOL      0.052589
    115 H51        -5.3020    2.4530    3.4360 hc        1 MOL      0.068602
    116 H52        -5.4610    2.1020    1.7510 hc        1 MOL      0.068602
    117 H53        -4.4150    1.0720    2.6960 hc        1 MOL      0.068602
    118 H54        -4.1930    3.8410    4.9170 hc        1 MOL      0.061319
    119 H55        -2.7200    4.6070    5.0900 hc        1 MOL      0.061319
    120 H56        -3.6870    5.1800    3.7310 hc        1 MOL      0.061319
    121 N11        -3.8240    2.5780   -1.3700 n         1 MOL     -0.236779
    122 C40        -4.3110    2.0060   -2.6610 c3        1 MOL     -0.026051
    123 C41        -5.8230    1.7350   -2.7580 c         1 MOL      0.304133
    124 O16        -6.2470    1.1220   -3.7770 o         1 MOL     -0.479989
    125 C42        -3.9650    2.9770   -3.7930 c3        1 MOL      0.307719
    126 O17        -2.5610    3.4850   -3.6790 oh        1 MOL     -0.610667
    127 H57        -3.3280    3.4530   -1.2560 hn        1 MOL      0.173223
    128 H58        -3.8810    1.0340   -2.8520 h1        1 MOL      0.065932
    129 H59        -4.7070    3.7890   -3.7810 h1        1 MOL      0.013959
    130 H60        -4.0550    2.4640   -4.7510 h1        1 MOL      0.013959
    131 H61        -2.0210    2.7240   -3.4850 ho        1 MOL      0.369136
    132 N12        -6.6300    2.0240   -1.7150 n         1 MOL     -0.183226
    133 C43        -7.9750    1.5540   -1.5400 c3        1 MOL      0.093529
    134 C44        -8.0490    0.0110   -1.4310 c         1 MOL      0.637887
    135 O18        -8.9920   -0.6800   -1.8470 o         1 MOL     -0.551895
    136 C45        -8.9980    2.3130   -2.4760 c3        1 MOL     -0.335769
    137 H62        -6.1800    2.6430   -1.0430 hn        1 MOL      0.194753
    138 H63        -8.2830    1.7890   -0.5290 h1        1 MOL      0.060948
    139 H64        -8.6020    2.0780   -3.4620 hc        1 MOL      0.099197
    140 H65       -10.0250    1.9690   -2.3610 hc        1 MOL      0.099197
    141 H66        -8.9570    3.3850   -2.2630 hc        1 MOL      0.099197
    142 N13        -6.9840   -0.5010   -0.7850 n         1 MOL     -0.821868
    143 C46        -6.6830   -1.9000   -0.5930 c3        1 MOL      0.649613
    144 C47        -6.3840   -2.1230    0.8720 c         1 MOL      0.528285
    145 O19        -5.7910   -1.3110    1.5180 o         1 MOL     -0.459590
    146 C48        -5.7640   -2.4080   -1.6160 c3        1 MOL     -0.192642
    147 H67        -6.2620    0.1380   -0.4780 hn        1 MOL      0.298675
    148 H68        -7.6130   -2.4430   -0.7890 h1        1 MOL     -0.093434
    149 H69        -5.7280   -3.4980   -1.5700 hc        1 MOL      0.044327
    150 H70        -6.1310   -2.1160   -2.6000 hc        1 MOL      0.044327
    151 H71        -4.8200   -1.9170   -1.3870 hc        1 MOL      0.044327
    152 N14        -6.7070   -3.3280    1.3340 n         1 MOL     -0.723910
    153 C49        -6.3380   -3.9370    2.6720 c3        1 MOL      0.205834
    154 C50        -6.6460   -3.1160    3.9830 c         1 MOL      0.424656
    155 O20        -6.0160   -3.2960    5.0130 o         1 MOL     -0.487982
    156 C51        -4.8510   -4.5230    2.5460 c3        1 MOL      0.043225
    157 C52        -4.7270   -5.4800    1.3940 c3        1 MOL      0.029745
    158 C53        -3.2390   -6.0220    1.5130 c         1 MOL      0.500388
    159 O21        -2.9650   -6.9340    2.3740 o         1 MOL     -0.656925
    160 O22        -2.3940   -5.7510    0.6310 o         1 MOL     -0.656925
    161 H72        -7.0300   -4.0120    0.6620 hn        1 MOL      0.309450
    162 H73        -6.9730   -4.8010    2.8620 h1        1 MOL      0.042445
    163 H74        -4.7620   -5.1090    3.4580 hc        1 MOL     -0.003677
    164 H75        -4.0940   -3.7510    2.4500 hc        1 MOL     -0.003677
    165 H76        -4.9420   -4.9300    0.4810 hc        1 MOL     -0.013444
    166 H77        -5.3910   -6.3090    1.6190 hc        1 MOL     -0.013444
    167 N15        -7.7040   -2.2650    4.0120 n         1 MOL     -0.330051
    168 C54        -7.9320   -1.1990    4.9940 c3        1 MOL     -0.149639
    169 H78        -8.4800   -0.3830    4.5230 h1        1 MOL      0.095232
    170 H79        -8.5120   -1.5920    5.8290 h1        1 MOL      0.095232
    171 H80        -6.9730   -0.8290    5.3580 h1        1 MOL      0.095232
    172 H81        -8.2160   -2.2120    3.1450 hn        1 MOL      0.237840
    173 Ca1        -0.0110   -4.9950    0.1750 Ca        1 MOL      1.702226
    174 O23        -0.2930   -7.0590    2.0380 oh        1 MOL     -0.789503
    175 H82        -0.0130   -7.7040    2.6940 ho        1 MOL      0.392484
    176 H83        -1.2180   -6.9100    2.2320 ho        1 MOL      0.392484
    177 O24         1.6990   -4.7620    2.2410 oh        1 MOL     -0.789503
    178 H84         1.7350   -3.9070    2.6740 ho        1 MOL      0.392484
    179 H85         1.5680   -5.3830    2.9600 ho        1 MOL      0.392484
    180 O25         0.5250   -4.9420   -2.5570 oh        1 MOL     -0.789503
    181 H86         0.2290   -4.3670   -3.2610 ho        1 MOL      0.392484
    182 H87         1.3130   -5.3620   -2.9050 ho        1 MOL      0.392484
    183 O26        -0.4040   -7.4140   -0.9750 oh        1 MOL     -0.789503
    184 H88        -0.8660   -8.2330   -0.8180 ho        1 MOL      0.392484
    185 H89        -0.6680   -7.1560   -1.8570 ho        1 MOL      0.392484
    186 O27        -1.0550   -3.2480    1.7640 oh        1 MOL     -0.789503
    187 H90        -0.3390   -2.6270    1.8820 ho        1 MOL      0.392484
    188 H91        -1.7840   -2.7340    1.4310 ho        1 MOL      0.392484
    189 O28         2.3830   -6.0740   -0.4870 oh        1 MOL     -0.789503
    190 H92         3.1110   -6.1420    0.1280 ho        1 MOL      0.392484
    191 H93         2.7410   -6.3860   -1.3140 ho        1 MOL      0.392484
@<TRIPOS>BOND
     1    1    2 1   
     2    1    4 1   
     3    1    5 1   
     4    1    6 1   
     5    2    3 2   
     6    2    7 1   
     7    7    8 1   
     8    7   15 1   
     9    8    9 1   
    10    8   11 1   
    11    8   16 1   
    12    9   10 2   
    13    9   19 1   
    14   11   12 1   
    15   11   17 1   
    16   11   18 1   
    17   12   13 1   
    18   12   14 1   
    19   19   20 1   
    20   19   28 1   
    21   20   21 1   
    22   20   23 1   
    23   20   29 1   
    24   21   22 2   
    25   21   41 1   
    26   23   24 1   
    27   23   30 1   
    28   23   31 1   
    29   24   25 1   
    30   24   32 1   
    31   24   33 1   
    32   25   26 1   
    33   25   34 1   
    34   25   35 1   
    35   26   27 1   
    36   26   36 1   
    37   26   37 1   
    38   27   38 1   
    39   27   39 1   
    40   27   40 1   
    41   41   42 1   
    42   41   49 1   
    43   42   43 1   
    44   42   45 1   
    45   42   50 1   
    46   43   44 2   
    47   43   53 1   
    48   45   46 1   
    49   45   51 1   
    50   45   52 1   
    51   46   47 1   
    52   46   48 1   
    53   53   54 1   
    54   53   57 1   
    55   54   55 1   
    56   54   58 1   
    57   54   59 1   
    58   55   56 2   
    59   55   60 1   
    60   60   61 1   
    61   60   68 1   
    62   61   62 1   
    63   61   64 1   
    64   61   69 1   
    65   62   63 2   
    66   62   74 1   
    67   64   65 1   
    68   64   70 1   
    69   64   71 1   
    70   65   66 1   
    71   65   67 2   
    72   66   72 1   
    73   66   73 1   
    74   74   75 1   
    75   74   78 1   
    76   75   76 1   
    77   75   79 1   
    78   75   80 1   
    79   76   77 2   
    80   76   81 1   
    81   81   82 1   
    82   81   93 1   
    83   82   83 1   
    84   82   85 1   
    85   82   94 1   
    86   83   84 2   
    87   83  102 1   
    88   85   86 1   
    89   85   95 1   
    90   85   96 1   
    91   86   87 ar  
    92   86   88 ar  
    93   87   89 ar  
    94   87   97 1   
    95   88   90 ar  
    96   88   98 1   
    97   89   91 ar  
    98   89   99 1   
    99   90   91 ar  
   100   90  100 1   
   101   91   92 1   
   102   92  101 1   
   103  102  103 1   
   104  102  110 1   
   105  103  104 1   
   106  103  106 1   
   107  103  111 1   
   108  104  105 2   
   109  104  121 1   
   110  106  107 1   
   111  106  108 1   
   112  106  112 1   
   113  107  109 1   
   114  107  113 1   
   115  107  114 1   
   116  108  115 1   
   117  108  116 1   
   118  108  117 1   
   119  109  118 1   
   120  109  119 1   
   121  109  120 1   
   122  121  122 1   
   123  121  127 1   
   124  122  123 1   
   125  122  125 1   
   126  122  128 1   
   127  123  124 2   
   128  123  132 1   
   129  125  126 1   
   130  125  129 1   
   131  125  130 1   
   132  126  131 1   
   133  132  133 1   
   134  132  137 1   
   135  133  134 1   
   136  133  136 1   
   137  133  138 1   
   138  134  135 2   
   139  134  142 1   
   140  136  139 1   
   141  136  140 1   
   142  136  141 1   
   143  142  143 1   
   144  142  147 1   
   145  143  144 1   
   146  143  146 1   
   147  143  148 1   
   148  144  145 2   
   149  144  152 1   
   150  146  149 1   
   151  146  150 1   
   152  146  151 1   
   153  152  153 1   
   154  152  161 1   
   155  153  154 1   
   156  153  156 1   
   157  153  162 1   
   158  154  155 2   
   159  154  167 1   
   160  156  157 1   
   161  156  163 1   
   162  156  164 1   
   163  157  158 1   
   164  157  165 1   
   165  157  166 1   
   166  158  159 1   
   167  158  160 1   
   168  167  168 1   
   169  167  172 1   
   170  168  169 1   
   171  168  170 1   
   172  168  171 1   
   173  174  175 1   
   174  174  176 1   
   175  177  178 1   
   176  177  179 1   
   177  180  181 1   
   178  180  182 1   
   179  183  184 1   
   180  183  185 1   
   181  186  187 1   
   182  186  188 1   
   183  189  190 1   
   184  189  191 1   
@<TRIPOS>SUBSTRUCTURE
     1 MOL         1 TEMP              0 ****  ****    0 ROOT
