@<TRIPOS>MOLECULE
MOL
  198   191     1     0     0
SMALL
resp


@<TRIPOS>ATOM
      1 C1          2.1700    9.2160   -5.2330 c3        1 MOL     -0.331982
      2 C2          2.2560    8.4970   -3.8820 c         1 MOL      0.697209
      3 O1          3.3440    8.1060   -3.4090 o         1 MOL     -0.614252
      4 H1          2.0520    8.4800   -6.0280 hc        1 MOL      0.088995
      5 H2          1.3140    9.8900   -5.2330 hc        1 MOL      0.088995
      6 H3          3.0830    9.7880   -5.4000 hc        1 MOL      0.088995
      7 N1          1.1140    8.3570   -3.0960 n         1 MOL     -0.527199
      8 C3          1.2000    7.6700   -1.7710 c3        1 MOL     -0.022730
      9 C4          0.7710    6.1990   -1.8720 c         1 MOL      0.601069
     10 O2         -0.1960    5.8490   -2.5490 o         1 MOL     -0.524398
     11 C5          0.2970    8.4480   -0.7840 c3        1 MOL     -0.135839
     12 C6         -1.1410    8.7180   -1.3220 c         1 MOL      0.607474
     13 O3         -2.1190    8.2800   -0.6460 o         1 MOL     -0.590983
     14 O4         -1.3790    9.5060   -2.2390 o         1 MOL     -0.590983
     15 H4          0.1720    8.5460   -3.3950 hn        1 MOL      0.287109
     16 H5          2.2000    7.7580   -1.3540 h1        1 MOL      0.117372
     17 H6          0.7740    9.4270   -0.6880 hc        1 MOL      0.043794
     18 H7          0.3610    8.0430    0.2340 hc        1 MOL      0.043794
     19 N2          1.5170    5.3230   -1.1150 n         1 MOL     -0.518624
     20 C7          1.0690    3.9880   -0.8070 c3        1 MOL      0.019573
     21 C8          1.3350    3.6410    0.7380 c         1 MOL      0.765968
     22 O5          2.1600    4.2210    1.3620 o         1 MOL     -0.556979
     23 C9          1.8420    3.0010   -1.7610 c3        1 MOL     -0.003906
     24 C10         3.3520    2.9800   -1.6130 c3        1 MOL     -0.110687
     25 C11         3.9810    2.0790   -0.4810 c3        1 MOL      0.049520
     26 C12         5.4740    1.9420   -0.7200 c3        1 MOL     -0.086168
     27 N3          6.1190    1.1410    0.3860 n4        1 MOL     -0.211534
     28 H8          2.3270    5.7470   -0.6660 hn        1 MOL      0.248224
     29 H9         -0.0110    3.9320   -0.9650 h1        1 MOL      0.074879
     30 H10         1.6570    3.2720   -2.8000 hc        1 MOL      0.014817
     31 H11         1.3870    2.0130   -1.6990 hc        1 MOL      0.014817
     32 H12         3.8250    3.9570   -1.5660 hc        1 MOL      0.050383
     33 H13         3.8490    2.5190   -2.4720 hc        1 MOL      0.050383
     34 H14         3.5160    1.1010   -0.4880 hc        1 MOL      0.042325
     35 H15         3.7990    2.5840    0.4730 hc        1 MOL      0.042325
     36 H16         5.8980    2.9450   -0.7680 hx        1 MOL      0.068115
     37 H17         5.6470    1.4950   -1.6930 hx        1 MOL      0.068115
     38 H18         5.9300    0.1460    0.2920 hn        1 MOL      0.275272
     39 H19         7.1030    1.3470    0.2980 hn        1 MOL      0.275272
     40 H20         5.8260    1.4080    1.3110 hn        1 MOL      0.275272
     41 N4          0.5990    2.6530    1.2770 n         1 MOL     -0.655278
     42 C13         0.8670    2.0460    2.6170 c3        1 MOL      0.072165
     43 C14         0.7360    0.5650    2.4840 c         1 MOL      0.463981
     44 O6         -0.1420    0.0150    1.7720 o         1 MOL     -0.486891
     45 C15        -0.1290    2.6290    3.6120 c3        1 MOL     -0.170451
     46 C16        -1.5770    2.5910    3.2450 c         1 MOL      0.634439
     47 O7         -2.1220    3.6120    2.6740 o         1 MOL     -0.668861
     48 O8         -2.2760    1.5850    3.4500 o         1 MOL     -0.668861
     49 H21        -0.0950    2.1780    0.7280 hn        1 MOL      0.309871
     50 H22         1.9020    2.2510    2.8780 h1        1 MOL      0.082899
     51 H23         0.0890    3.6780    3.8280 hc        1 MOL      0.065328
     52 H24        -0.0770    2.0190    4.5140 hc        1 MOL      0.065328
     53 N5          1.4840   -0.2940    3.1630 n         1 MOL     -0.372873
     54 C17         2.6930    0.0080    3.9670 c3        1 MOL      0.046538
     55 C18         4.0540   -0.1720    3.2400 c         1 MOL      0.492707
     56 O9          4.1170    0.1330    2.0640 o         1 MOL     -0.539706
     57 H25         1.4080   -1.2730    2.9240 hn        1 MOL      0.259538
     58 H26         2.6150   -0.6700    4.8250 h1        1 MOL      0.038971
     59 H27         2.6630    0.9840    4.4440 h1        1 MOL      0.038971
     60 N6          5.0380   -0.6530    3.9800 n         1 MOL     -0.387658
     61 C19         6.3930   -0.8990    3.4120 c3        1 MOL      0.070022
     62 C20         6.7160   -2.1840    2.6890 c         1 MOL      0.309490
     63 O10         7.7610   -2.3360    1.9650 o         1 MOL     -0.452679
     64 C21         7.4260   -0.7880    4.5180 c3        1 MOL     -0.183528
     65 C22         7.2920   -1.7750    5.6450 c         1 MOL      0.759185
     66 O11         7.9750   -1.6780    6.6980 o         1 MOL     -0.715703
     67 O12         6.3400   -2.6130    5.6050 o         1 MOL     -0.715703
     68 H28         4.8790   -0.5200    4.9700 hn        1 MOL      0.280669
     69 H29         6.7480   -0.1020    2.7640 h1        1 MOL      0.013017
     70 H30         7.2720    0.2180    4.9210 hc        1 MOL      0.048630
     71 H31         8.4500   -0.8440    4.1480 hc        1 MOL      0.048630
     72 N7          5.7190   -3.1190    2.7550 n         1 MOL     -0.084526
     73 C23         5.7380   -4.3720    2.0620 c3        1 MOL     -0.224371
     74 C24         5.4660   -4.3170    0.5390 c         1 MOL      0.504152
     75 O13         4.6280   -4.9770   -0.0190 o         1 MOL     -0.528225
     76 H32         4.9540   -2.9520    3.3900 hn        1 MOL      0.198948
     77 H33         4.9100   -4.9870    2.4230 h1        1 MOL      0.125608
     78 H34         6.6830   -4.8290    2.3410 h1        1 MOL      0.125608
     79 N8          6.1850   -3.4300   -0.1540 n         1 MOL     -0.249374
     80 C25         6.0540   -3.1880   -1.5980 c3        1 MOL     -0.035829
     81 C26         5.1170   -2.0760   -1.8470 c         1 MOL      0.328095
     82 O14         5.0570   -1.1130   -1.0310 o         1 MOL     -0.465845
     83 C27         7.3430   -2.9120   -2.4110 c3        1 MOL      0.519606
     84 C28         8.1780   -1.7640   -1.9080 c3        1 MOL     -0.460003
     85 O15         8.1510   -4.0310   -2.3770 oh        1 MOL     -0.634693
     86 H35         6.8500   -2.9390    0.4340 hn        1 MOL      0.120878
     87 H36         5.7070   -4.1140   -2.0390 h1        1 MOL      0.059231
     88 H37         7.1030   -2.8140   -3.4700 h1        1 MOL     -0.052194
     89 H38         7.6600   -4.8560   -2.4300 ho        1 MOL      0.381850
     90 H39         7.4440   -0.9890   -1.7020 hc        1 MOL      0.132741
     91 H40         8.6510   -2.1810   -1.0110 hc        1 MOL      0.132741
     92 H41         8.9120   -1.3630   -2.6120 hc        1 MOL      0.132741
     93 N9          4.3740   -2.1800   -2.9720 n         1 MOL     -0.278307
     94 C29         3.2640   -1.2510   -3.1490 c3        1 MOL     -0.025400
     95 C30         2.1080   -1.5890   -2.1720 c         1 MOL      0.491310
     96 O16         1.3580   -0.7210   -1.7760 o         1 MOL     -0.458473
     97 C31         2.8690   -1.2280   -4.6680 c3        1 MOL     -0.005205
     98 C32         4.0350   -1.0660   -5.5720 c3        1 MOL     -0.039419
     99 C33         1.9110   -0.0820   -4.9790 c3        1 MOL     -0.288879
    100 C34         4.8150    0.2720   -5.3980 c3        1 MOL     -0.247374
    101 H42         4.5170   -2.9330   -3.6280 hn        1 MOL      0.244121
    102 H43         3.6070   -0.2860   -2.7870 h1        1 MOL      0.127910
    103 H44         2.3160   -2.1470   -4.8760 hc        1 MOL      0.026578
    104 H45         3.7830   -1.2200   -6.6190 hc        1 MOL      0.050282
    105 H46         4.7920   -1.8400   -5.4440 hc        1 MOL      0.050282
    106 H47         1.7520   -0.0960   -6.0560 hc        1 MOL      0.098671
    107 H48         0.9910    0.0150   -4.4100 hc        1 MOL      0.098671
    108 H49         2.4330    0.8520   -4.7570 hc        1 MOL      0.098671
    109 H50         5.7690    0.1980   -5.9250 hc        1 MOL      0.065010
    110 H51         4.1960    1.0650   -5.8050 hc        1 MOL      0.065010
    111 H52         5.1080    0.5010   -4.3660 hc        1 MOL      0.065010
    112 N10         1.8020   -2.8710   -1.9640 n         1 MOL     -0.299014
    113 C35         0.7200   -3.2570   -1.0980 c3        1 MOL     -0.177228
    114 C36         0.1050   -4.5900   -1.6750 c         1 MOL      0.720027
    115 O17         0.6350   -5.2820   -2.5080 o         1 MOL     -0.563251
    116 C37         1.2580   -3.5930    0.2610 c3        1 MOL      0.298563
    117 C38         2.2250   -2.5300    0.7940 c3        1 MOL     -0.171837
    118 O18         0.1730   -3.8120    1.1940 oh        1 MOL     -0.644600
    119 H53         2.2720   -3.6380   -2.4200 hn        1 MOL      0.227393
    120 H54        -0.0640   -2.5130   -1.0340 h1        1 MOL      0.133689
    121 H55         1.8400   -4.5150    0.1930 h1        1 MOL      0.003219
    122 H56         0.5270   -3.8340    2.0940 ho        1 MOL      0.400842
    123 H57         2.6750   -2.7280    1.7730 hc        1 MOL      0.037360
    124 H58         3.1020   -2.4370    0.1420 hc        1 MOL      0.037360
    125 H59         1.6470   -1.6090    0.7930 hc        1 MOL      0.037360
    126 N11        -1.1540   -4.7450   -1.3460 n         1 MOL     -0.644371
    127 C39        -1.9820   -5.9370   -1.8020 c3        1 MOL      0.083196
    128 C40        -3.3320   -5.4090   -2.1990 c         1 MOL      0.585595
    129 O19        -3.7440   -5.6670   -3.3350 o         1 MOL     -0.564569
    130 C41        -2.0080   -6.9970   -0.7080 c3        1 MOL      0.372520
    131 C42        -3.1000   -8.0600   -1.0140 c3        1 MOL     -0.440844
    132 O20        -2.1450   -6.3490    0.5020 oh        1 MOL     -0.608661
    133 H60        -1.5190   -4.0920   -0.6670 hn        1 MOL      0.348228
    134 H61        -1.6810   -6.3370   -2.7700 h1        1 MOL      0.079972
    135 H62        -1.0410   -7.4930   -0.7370 h1        1 MOL     -0.001661
    136 H63        -1.6650   -6.8860    1.1330 ho        1 MOL      0.403270
    137 H64        -4.0610   -7.5660   -1.1250 hc        1 MOL      0.111082
    138 H65        -2.7820   -8.5780   -1.9090 hc        1 MOL      0.111082
    139 H66        -3.0790   -8.7010   -0.1250 hc        1 MOL      0.111082
    140 N12        -4.0700   -4.7800   -1.3180 n         1 MOL     -0.449193
    141 C43        -5.3890   -4.1570   -1.5990 c3        1 MOL      0.032090
    142 C44        -5.6260   -2.9390   -0.7560 c         1 MOL      0.639431
    143 O21        -5.2620   -2.9830    0.4350 o         1 MOL     -0.504349
    144 C45        -6.5650   -5.2470   -1.4050 c3        1 MOL     -0.193610
    145 C46        -8.0250   -4.7530   -1.4680 c3        1 MOL     -0.113153
    146 C47        -8.9510   -5.8310   -0.8480 c3        1 MOL      0.004976
    147 C48       -10.4110   -5.5320   -0.7620 c3        1 MOL     -0.132415
    148 N13       -10.7990   -4.4040    0.1090 n4        1 MOL     -0.184361
    149 H67        -3.6730   -4.6050   -0.4140 hn        1 MOL      0.290634
    150 H68        -5.3630   -3.9100   -2.6580 h1        1 MOL      0.095555
    151 H69        -6.3600   -5.6250   -0.4030 hc        1 MOL      0.091880
    152 H70        -6.4590   -6.0660   -2.1210 hc        1 MOL      0.091880
    153 H71        -8.1970   -4.6880   -2.5400 hc        1 MOL      0.064024
    154 H72        -8.1980   -3.7870   -0.9830 hc        1 MOL      0.064024
    155 H73        -8.5060   -6.0170    0.1340 hc        1 MOL      0.052919
    156 H74        -8.8550   -6.6970   -1.4990 hc        1 MOL      0.052919
    157 H75       -10.7510   -6.4650   -0.2980 hx        1 MOL      0.115980
    158 H76       -10.7330   -5.3430   -1.7830 hx        1 MOL      0.115980
    159 H77       -11.8080   -4.4200    0.0630 hn        1 MOL      0.234519
    160 H78       -10.4040   -4.4890    1.0330 hn        1 MOL      0.234519
    161 H79       -10.5250   -3.5440   -0.3300 hn        1 MOL      0.234519
    162 N14        -5.9260   -1.7540   -1.4030 n         1 MOL     -0.716478
    163 C49        -6.1720   -0.4660   -0.6210 c3        1 MOL      0.391967
    164 C50        -4.8890    0.2870   -0.2740 c         1 MOL      0.555109
    165 O22        -4.6630    0.8020    0.8480 o         1 MOL     -0.673251
    166 C51        -7.3480    0.3180   -1.3020 c3        1 MOL     -0.409056
    167 C52        -7.4440    1.7960   -0.9300 c3        1 MOL     -0.079372
    168 C53        -7.4820    1.9650    0.5820 c         1 MOL      0.690012
    169 O23        -8.3730    1.3640    1.2310 o         1 MOL     -0.699922
    170 O24        -6.7440    2.8430    1.1010 o         1 MOL     -0.699922
    171 H80        -6.1480   -1.8700   -2.3810 hn        1 MOL      0.297862
    172 H81        -6.5710   -0.7860    0.3410 h1        1 MOL      0.035578
    173 H82        -8.2440   -0.2290   -1.0170 hc        1 MOL      0.108030
    174 H83        -7.3320    0.2790   -2.3920 hc        1 MOL      0.108030
    175 H84        -8.3210    2.1670   -1.4600 hc        1 MOL      0.047918
    176 H85        -6.5980    2.3500   -1.3260 hc        1 MOL      0.047918
    177 N15        -3.8590    0.3310   -1.1660 n         1 MOL     -0.385015
    178 C54        -3.7380   -0.0410   -2.6050 c3        1 MOL     -0.073543
    179 H86        -3.2150   -0.9940   -2.6910 h1        1 MOL      0.072571
    180 H87        -4.7320   -0.1310   -3.0430 h1        1 MOL      0.072571
    181 H88        -3.1760    0.7290   -3.1340 h1        1 MOL      0.072571
    182 H89        -3.0060    0.6990   -0.7670 hn        1 MOL      0.306827
    183 Ca1        -4.6210    2.7780    2.7870 Ca        1 MOL      1.752903
    184 O25        -3.9820    3.9240    0.2470 oh        1 MOL     -0.830384
    185 H90        -3.3300    4.6180    0.2570 ho        1 MOL      0.408244
    186 H91        -3.9420    3.5730   -0.6410 ho        1 MOL      0.408244
    187 O26        -6.8530    3.2670    4.2740 oh        1 MOL     -0.830384
    188 H92        -7.7620    3.0020    4.1370 ho        1 MOL      0.408244
    189 H93        -6.7500    3.3000    5.2190 ho        1 MOL      0.408244
    190 O27        -4.7170    5.5950    2.8750 oh        1 MOL     -0.830384
    191 H94        -5.5310    5.8460    3.3050 ho        1 MOL      0.408244
    192 H95        -4.3410    6.4210    2.5730 ho        1 MOL      0.408244
    193 O28        -5.4150    0.6690    4.0360 oh        1 MOL     -0.830384
    194 H96        -5.8710   -0.1460    3.8160 ho        1 MOL      0.408244
    195 H97        -5.3680    0.6560    4.9880 ho        1 MOL      0.408244
    196 O29        -4.2650    3.4520    5.3260 oh        1 MOL     -0.830384
    197 H98        -5.0420    3.5580    5.8870 ho        1 MOL      0.408244
    198 H99        -3.6830    4.1620    5.5830 ho        1 MOL      0.408244
@<TRIPOS>BOND
     1    1    2 1   
     2    1    4 1   
     3    1    5 1   
     4    1    6 1   
     5    2    3 2   
     6    2    7 1   
     7    7    8 1   
     8    7   15 1   
     9    8    9 1   
    10    8   11 1   
    11    8   16 1   
    12    9   10 2   
    13    9   19 1   
    14   11   12 1   
    15   11   17 1   
    16   11   18 1   
    17   12   13 1   
    18   12   14 1   
    19   19   20 1   
    20   19   28 1   
    21   20   21 1   
    22   20   23 1   
    23   20   29 1   
    24   21   22 2   
    25   21   41 1   
    26   23   24 1   
    27   23   30 1   
    28   23   31 1   
    29   24   25 1   
    30   24   32 1   
    31   24   33 1   
    32   25   26 1   
    33   25   34 1   
    34   25   35 1   
    35   26   27 1   
    36   26   36 1   
    37   26   37 1   
    38   27   38 1   
    39   27   39 1   
    40   27   40 1   
    41   41   42 1   
    42   41   49 1   
    43   42   43 1   
    44   42   45 1   
    45   42   50 1   
    46   43   44 2   
    47   43   53 1   
    48   45   46 1   
    49   45   51 1   
    50   45   52 1   
    51   46   47 1   
    52   46   48 1   
    53   53   54 1   
    54   53   57 1   
    55   54   55 1   
    56   54   58 1   
    57   54   59 1   
    58   55   56 2   
    59   55   60 1   
    60   60   61 1   
    61   60   68 1   
    62   61   62 1   
    63   61   64 1   
    64   61   69 1   
    65   62   63 2   
    66   62   72 1   
    67   64   65 1   
    68   64   70 1   
    69   64   71 1   
    70   65   66 1   
    71   65   67 1   
    72   72   73 1   
    73   72   76 1   
    74   73   74 1   
    75   73   77 1   
    76   73   78 1   
    77   74   75 2   
    78   74   79 1   
    79   79   80 1   
    80   79   86 1   
    81   80   81 1   
    82   80   83 1   
    83   80   87 1   
    84   81   82 2   
    85   81   93 1   
    86   83   84 1   
    87   83   85 1   
    88   83   88 1   
    89   84   90 1   
    90   84   91 1   
    91   84   92 1   
    92   85   89 1   
    93   93   94 1   
    94   93  101 1   
    95   94   95 1   
    96   94   97 1   
    97   94  102 1   
    98   95   96 2   
    99   95  112 1   
   100   97   98 1   
   101   97   99 1   
   102   97  103 1   
   103   98  100 1   
   104   98  104 1   
   105   98  105 1   
   106   99  106 1   
   107   99  107 1   
   108   99  108 1   
   109  100  109 1   
   110  100  110 1   
   111  100  111 1   
   112  112  113 1   
   113  112  119 1   
   114  113  114 1   
   115  113  116 1   
   116  113  120 1   
   117  114  115 2   
   118  114  126 1   
   119  116  117 1   
   120  116  118 1   
   121  116  121 1   
   122  117  123 1   
   123  117  124 1   
   124  117  125 1   
   125  118  122 1   
   126  126  127 1   
   127  126  133 1   
   128  127  128 1   
   129  127  130 1   
   130  127  134 1   
   131  128  129 2   
   132  128  140 1   
   133  130  131 1   
   134  130  132 1   
   135  130  135 1   
   136  131  137 1   
   137  131  138 1   
   138  131  139 1   
   139  132  136 1   
   140  140  141 1   
   141  140  149 1   
   142  141  142 1   
   143  141  144 1   
   144  141  150 1   
   145  142  143 2   
   146  142  162 1   
   147  144  145 1   
   148  144  151 1   
   149  144  152 1   
   150  145  146 1   
   151  145  153 1   
   152  145  154 1   
   153  146  147 1   
   154  146  155 1   
   155  146  156 1   
   156  147  148 1   
   157  147  157 1   
   158  147  158 1   
   159  148  159 1   
   160  148  160 1   
   161  148  161 1   
   162  162  163 1   
   163  162  171 1   
   164  163  164 1   
   165  163  166 1   
   166  163  172 1   
   167  164  165 2   
   168  164  177 1   
   169  166  167 1   
   170  166  173 1   
   171  166  174 1   
   172  167  168 1   
   173  167  175 1   
   174  167  176 1   
   175  168  169 1   
   176  168  170 1   
   177  177  178 1   
   178  177  182 1   
   179  178  179 1   
   180  178  180 1   
   181  178  181 1   
   182  184  185 1   
   183  184  186 1   
   184  187  188 1   
   185  187  189 1   
   186  190  191 1   
   187  190  192 1   
   188  193  194 1   
   189  193  195 1   
   190  196  197 1   
   191  196  198 1   
@<TRIPOS>SUBSTRUCTURE
     1 MOL         1 TEMP              0 ****  ****    0 ROOT
