@<TRIPOS>MOLECULE
MOL
  181   177     1     0     0
SMALL
resp


@<TRIPOS>ATOM
      1 C1          7.0800    6.3350   -3.3550 c3        1 MOL     -0.495132
      2 C2          6.0800    6.1110   -2.2240 c         1 MOL      0.820274
      3 O1          5.0870    6.7870   -2.1250 o         1 MOL     -0.605336
      4 H1          7.0710    5.4740   -4.0240 hc        1 MOL      0.125942
      5 H2          6.8050    7.2300   -3.9130 hc        1 MOL      0.125942
      6 H3          8.0790    6.4590   -2.9380 hc        1 MOL      0.125942
      7 N1          6.2460    5.2750   -1.1800 n         1 MOL     -0.634289
      8 C3          7.4270    4.3740   -0.9230 c3        1 MOL      0.025041
      9 C4          7.5990    4.2040    0.5670 c         1 MOL      0.594654
     10 O2          8.7110    3.9040    0.9460 o         1 MOL     -0.569473
     11 C5          7.2020    2.9820   -1.5300 c3        1 MOL     -0.130898
     12 C6          5.8680    2.3490   -1.1700 c         1 MOL      0.529776
     13 O3          4.9190    2.3950   -1.9300 o         1 MOL     -0.609865
     14 O4          5.7170    1.8960   -0.0350 o         1 MOL     -0.609865
     15 H4          5.5210    5.2940   -0.4840 hn        1 MOL      0.352856
     16 H5          8.3190    4.8360   -1.3310 h1        1 MOL      0.080164
     17 H6          7.9990    2.3050   -1.2260 hc        1 MOL      0.050285
     18 H7          7.1680    3.0360   -2.6120 hc        1 MOL      0.050285
     19 N2          6.5960    4.4790    1.4320 n         1 MOL     -0.568296
     20 C7          6.7480    4.2970    2.8680 c3        1 MOL      0.288939
     21 C8          7.0190    2.8950    3.4110 c         1 MOL      0.377075
     22 O5          7.4540    2.7610    4.5380 o         1 MOL     -0.541719
     23 C9          5.4140    4.7550    3.4040 c3        1 MOL     -0.375603
     24 H8          5.6890    4.5190    0.9800 hn        1 MOL      0.321748
     25 H9          7.5510    4.9170    3.2680 h1        1 MOL      0.029684
     26 H10         5.4460    4.6570    4.4920 hc        1 MOL      0.110566
     27 H11         5.3200    5.7870    3.0830 hc        1 MOL      0.110566
     28 H12         4.5870    4.1490    3.0340 hc        1 MOL      0.110566
     29 N3          6.7270    1.8670    2.5550 n         1 MOL     -0.086298
     30 C10         6.9200    0.4460    2.9540 c3        1 MOL     -0.065694
     31 C11         7.5600   -0.4090    1.8020 c         1 MOL      0.375423
     32 O6          7.7560   -1.6070    2.0250 o         1 MOL     -0.519047
     33 C12         5.6840   -0.1860    3.6300 c3        1 MOL      0.016047
     34 C13         4.4750    0.2580    2.9180 c         1 MOL      0.754095
     35 O7          3.5300    0.8760    3.4060 o         1 MOL     -0.739194
     36 O8          4.4130   -0.1100    1.7560 o         1 MOL     -0.739194
     37 H13         6.3350    2.0820    1.6590 hn        1 MOL      0.072566
     38 H14         7.7470    0.5000    3.6650 h1        1 MOL      0.081866
     39 H15         5.5760    0.2600    4.6120 hc        1 MOL     -0.000735
     40 H16         5.7000   -1.2740    3.7630 hc        1 MOL     -0.000735
     41 N4          7.9150    0.1100    0.6570 n         1 MOL     -0.155409
     42 C14         8.3030   -0.6260   -0.5910 c3        1 MOL     -0.140875
     43 C15         7.1530   -1.4380   -1.2250 c         1 MOL      0.610923
     44 O9          6.0520   -0.9330   -1.4920 o         1 MOL     -0.582661
     45 H17         7.7860    1.0960    0.4860 hn        1 MOL      0.127812
     46 H18         9.1360   -1.3180   -0.4800 h1        1 MOL      0.073214
     47 H19         8.7630    0.0500   -1.3150 h1        1 MOL      0.073214
     48 N5          7.3280   -2.7280   -1.4910 n         1 MOL     -0.445988
     49 C16         6.5190   -3.6270   -2.2970 c3        1 MOL      0.099856
     50 C17         5.4450   -4.2790   -1.4510 c         1 MOL      0.705111
     51 O10         5.7000   -4.6710   -0.3570 o         1 MOL     -0.516301
     52 C18         7.4220   -4.6300   -3.0180 c3        1 MOL     -0.481694
     53 C19         8.0490   -4.0400   -4.3120 c         1 MOL      0.762330
     54 N6          9.3690   -4.0750   -4.4150 n         1 MOL     -0.832737
     55 O11         7.3590   -3.5100   -5.1840 o         1 MOL     -0.548651
     56 H20         8.0370   -3.1870   -0.9480 hn        1 MOL      0.283615
     57 H21         5.9550   -3.0870   -3.0710 h1        1 MOL      0.047765
     58 H22         6.7350   -5.4350   -3.2690 hc        1 MOL      0.136599
     59 H23         8.1240   -4.9780   -2.2650 hc        1 MOL      0.136599
     60 H24         9.8960   -4.1260   -3.5480 hn        1 MOL      0.377234
     61 H25         9.7850   -3.8140   -5.2990 hn        1 MOL      0.377234
     62 N7          4.1540   -4.3400   -1.8530 n         1 MOL     -0.690794
     63 C20         3.0020   -4.5330   -0.9720 c3        1 MOL     -0.041625
     64 C21         2.7410   -3.4790    0.0260 c         1 MOL      1.008999
     65 O12         3.3370   -2.4110   -0.0140 o         1 MOL     -0.669852
     66 H26         4.0110   -3.8800   -2.7380 hn        1 MOL      0.328911
     67 H27         3.2160   -5.4360   -0.3940 h1        1 MOL      0.118425
     68 H28         2.0930   -4.6740   -1.5500 h1        1 MOL      0.118425
     69 N8          1.8430   -3.7630    1.0130 n         1 MOL     -1.011979
     70 C22         0.9340   -5.0240    1.0690 c3        1 MOL      0.033416
     71 C23        -0.5280   -4.7530    0.9700 c         1 MOL      0.525528
     72 O13        -1.2970   -5.5650    0.5300 o         1 MOL     -0.557305
     73 C24         1.2170   -5.6650    2.4190 c3        1 MOL      0.469498
     74 C25         0.7030   -7.0560    2.7480 c3        1 MOL     -0.338849
     75 O14         2.6260   -5.7240    2.7280 oh        1 MOL     -0.617624
     76 H29         1.9740   -3.3160    1.9130 hn        1 MOL      0.461438
     77 H30         1.2800   -5.7620    0.3380 h1        1 MOL      0.049345
     78 H31         0.7470   -4.9990    3.1390 h1        1 MOL     -0.042901
     79 H32         2.7010   -6.0250    3.6360 ho        1 MOL      0.379654
     80 H33         1.0950   -7.7710    2.0200 hc        1 MOL      0.078318
     81 H34         0.9970   -7.4010    3.7370 hc        1 MOL      0.078318
     82 H35        -0.3830   -6.9560    2.7530 hc        1 MOL      0.078318
     83 N9         -0.9220   -3.5570    1.4000 n         1 MOL     -0.259586
     84 C26        -2.3040   -3.0200    1.1830 c3        1 MOL      0.064753
     85 C27        -2.3750   -1.5640    0.6040 c         1 MOL      0.338284
     86 O15        -1.4400   -0.8200    0.8190 o         1 MOL     -0.545263
     87 C28        -3.1100   -3.1150    2.4910 c3        1 MOL      0.069616
     88 C29        -3.1570   -1.8380    3.3170 c3        1 MOL      0.269411
     89 C30        -2.6930   -4.2480    3.4880 c3        1 MOL     -0.320977
     90 C31        -4.0080   -1.8310    4.6070 c3        1 MOL     -0.247963
     91 H36        -0.2090   -2.8840    1.6480 hn        1 MOL      0.225137
     92 H37        -2.8400   -3.6770    0.5050 h1        1 MOL      0.072629
     93 H38        -4.1620   -3.3830    2.3600 hc        1 MOL      0.034369
     94 H39        -3.5600   -1.0350    2.6990 hc        1 MOL     -0.033626
     95 H40        -2.1310   -1.6270    3.5860 hc        1 MOL     -0.033626
     96 H41        -1.6980   -4.2340    3.9190 hc        1 MOL      0.061560
     97 H42        -3.4930   -4.5170    4.1830 hc        1 MOL      0.061560
     98 H43        -2.7670   -5.0830    2.7880 hc        1 MOL      0.061560
     99 H44        -3.6880   -1.0190    5.2520 hc        1 MOL      0.044526
    100 H45        -5.0790   -1.8170    4.3870 hc        1 MOL      0.044526
    101 H46        -3.7940   -2.7700    5.1220 hc        1 MOL      0.044526
    102 N10        -3.4980   -1.1220    0.0270 n         1 MOL     -0.233652
    103 C32        -4.7460   -1.7430   -0.3370 c3        1 MOL      0.061711
    104 C33        -5.9190   -0.7750   -0.3470 c         1 MOL      0.673633
    105 O16        -5.6830    0.4210   -0.0940 o         1 MOL     -0.578294
    106 C34        -4.5700   -2.4970   -1.6840 c3        1 MOL     -0.444586
    107 C35        -3.9760   -1.6750   -2.9110 c         1 MOL      0.745751
    108 O17        -4.7210   -1.3480   -3.8540 o         1 MOL     -0.712713
    109 O18        -2.7980   -1.3420   -2.9030 o         1 MOL     -0.712713
    110 H47        -3.4410   -0.1530   -0.2690 hn        1 MOL      0.337532
    111 H48        -5.0410   -2.3890    0.4990 h1        1 MOL     -0.033254
    112 H49        -5.5420   -2.9080   -1.9530 hc        1 MOL      0.085958
    113 H50        -3.8340   -3.2910   -1.5180 hc        1 MOL      0.085958
    114 N11        -7.1820   -1.2280   -0.5100 n         1 MOL     -0.558531
    115 C36        -8.2940   -0.2760   -0.8470 c3        1 MOL      0.072786
    116 C37        -8.9970    0.0870    0.5240 c         1 MOL      0.389823
    117 O19        -9.0130   -0.8240    1.3870 o         1 MOL     -0.487132
    118 C38        -9.3020   -0.9300   -1.8310 c3        1 MOL     -0.332667
    119 C39        -9.9600   -2.2080   -1.3760 ca        1 MOL      0.143632
    120 C40       -11.2120   -2.1260   -0.7080 ca        1 MOL     -0.120688
    121 C41        -9.4690   -3.4310   -1.7490 ca        1 MOL     -0.120688
    122 C42       -11.9720   -3.2970   -0.5270 ca        1 MOL     -0.105696
    123 C43       -10.1330   -4.6360   -1.4420 ca        1 MOL     -0.105696
    124 C44       -11.4190   -4.5360   -0.9120 ca        1 MOL     -0.174974
    125 H51        -7.2910   -2.2040   -0.7220 hn        1 MOL      0.351625
    126 H52        -7.9280    0.6760   -1.2310 h1        1 MOL      0.155266
    127 H53        -8.9900   -1.0450   -2.8670 hc        1 MOL      0.119588
    128 H54       -10.0780   -0.1990   -2.0700 hc        1 MOL      0.119588
    129 H55       -11.7580   -1.1930   -0.7250 ha        1 MOL      0.094245
    130 H56        -8.5120   -3.4840   -2.2340 ha        1 MOL      0.094245
    131 H57       -12.9430   -3.2810   -0.0520 ha        1 MOL      0.105950
    132 H58        -9.8020   -5.6210   -1.7320 ha        1 MOL      0.105950
    133 H59       -11.9790   -5.4150   -0.6450 ha        1 MOL      0.109557
    134 N12        -9.3850    1.3700    0.7730 n         1 MOL     -0.161695
    135 C45        -9.5540    2.4400   -0.1790 c3        1 MOL      0.438833
    136 C46        -8.3830    3.1780   -0.8150 c         1 MOL      0.086785
    137 O20        -8.4350    3.5340   -1.9720 o         1 MOL     -0.481404
    138 C47       -10.4520    3.4380    0.5360 c3        1 MOL     -0.227371
    139 C48       -11.0340    2.6550    1.6270 c3        1 MOL      0.056897
    140 C49        -9.8840    1.7190    2.0770 c3        1 MOL     -0.137117
    141 H60       -10.0680    1.9090   -0.9810 h1        1 MOL     -0.047390
    142 H61        -9.8820    4.2850    0.9340 hc        1 MOL      0.067772
    143 H62       -11.1790    3.7170   -0.2270 hc        1 MOL      0.067772
    144 H63       -11.4180    3.2200    2.4770 hc        1 MOL     -0.007409
    145 H64       -11.8400    2.1330    1.1230 hc        1 MOL     -0.007409
    146 H65        -9.1740    2.3250    2.6480 h1        1 MOL      0.092887
    147 H66       -10.2960    0.8590    2.5930 h1        1 MOL      0.092887
    148 N13        -7.2690    3.3350   -0.0620 n         1 MOL     -0.164232
    149 C50        -6.0360    3.9860   -0.5390 c3        1 MOL      0.009921
    150 C51        -6.4490    5.4460   -0.6070 c         1 MOL      0.438391
    151 O21        -6.2980    6.1690    0.3030 o         1 MOL     -0.562433
    152 C52        -4.9190    3.7680    0.4660 c3        1 MOL      0.369108
    153 C53        -3.5440    4.1290    0.0170 c3        1 MOL     -0.388868
    154 C54        -2.3730    3.8750    0.9730 c         1 MOL      0.842456
    155 O22        -1.2610    3.9740    0.5330 o         1 MOL     -0.774868
    156 O23        -2.5300    3.5450    2.1680 o         1 MOL     -0.774868
    157 H67        -7.2540    3.0310    0.9080 hn        1 MOL      0.197836
    158 H68        -5.7830    3.5420   -1.5110 h1        1 MOL      0.112323
    159 H69        -4.9050    2.6910    0.6820 hc        1 MOL     -0.079494
    160 H70        -5.1970    4.1630    1.4440 hc        1 MOL     -0.079494
    161 H71        -3.4540    5.1830   -0.2160 hc        1 MOL      0.038278
    162 H72        -3.4590    3.6190   -0.9430 hc        1 MOL      0.038278
    163 N14        -6.9360    6.0260   -1.6650 n         1 MOL     -0.291299
    164 C55        -6.7900    5.6310   -3.1630 c3        1 MOL     -0.111177
    165 H73        -6.3480    4.6370   -3.2350 h1        1 MOL      0.065693
    166 H74        -7.7720    5.6270   -3.6360 h1        1 MOL      0.065693
    167 H75        -6.1450    6.3510   -3.6680 h1        1 MOL      0.065693
    168 H76        -7.1870    6.9920   -1.5270 hn        1 MOL      0.236646
    169 Ca1         3.8230    0.2100   -0.6560 Ca        1 MOL      1.713551
    170 O24         1.5940    2.2370   -1.6630 oh        1 MOL     -0.834001
    171 H77         0.7750    1.8180   -1.3880 ho        1 MOL      0.418515
    172 H78         1.5380    3.1250   -1.3090 ho        1 MOL      0.418515
    173 O25         2.3200    1.8520    1.2040 oh        1 MOL     -0.834001
    174 H79         2.7370    1.3850    1.9310 ho        1 MOL      0.418515
    175 H80         1.4220    1.9960    1.4860 ho        1 MOL      0.418515
    176 O26         1.2340   -0.7230   -0.5870 oh        1 MOL     -0.834001
    177 H81         0.6690   -0.7870    0.1890 ho        1 MOL      0.418515
    178 H82         0.8450   -1.3320   -1.2150 ho        1 MOL      0.418515
    179 O27         3.6890   -0.3930   -3.2140 oh        1 MOL     -0.834001
    180 H83         3.1090   -0.9120   -3.7830 ho        1 MOL      0.418515
    181 H84         4.3970   -0.1180   -3.7880 ho        1 MOL      0.418515
@<TRIPOS>BOND
     1    1    2 1   
     2    1    4 1   
     3    1    5 1   
     4    1    6 1   
     5    2    3 2   
     6    2    7 1   
     7    7    8 1   
     8    7   15 1   
     9    8    9 1   
    10    8   11 1   
    11    8   16 1   
    12    9   10 2   
    13    9   19 1   
    14   11   12 1   
    15   11   17 1   
    16   11   18 1   
    17   12   13 1   
    18   12   14 1   
    19   19   20 1   
    20   19   24 1   
    21   20   21 1   
    22   20   23 1   
    23   20   25 1   
    24   21   22 2   
    25   21   29 1   
    26   23   26 1   
    27   23   27 1   
    28   23   28 1   
    29   29   30 1   
    30   29   37 1   
    31   30   31 1   
    32   30   33 1   
    33   30   38 1   
    34   31   32 2   
    35   31   41 1   
    36   33   34 1   
    37   33   39 1   
    38   33   40 1   
    39   34   35 1   
    40   34   36 1   
    41   41   42 1   
    42   41   45 1   
    43   42   43 1   
    44   42   46 1   
    45   42   47 1   
    46   43   44 2   
    47   43   48 1   
    48   48   49 1   
    49   48   56 1   
    50   49   50 1   
    51   49   52 1   
    52   49   57 1   
    53   50   51 2   
    54   50   62 1   
    55   52   53 1   
    56   52   58 1   
    57   52   59 1   
    58   53   54 1   
    59   53   55 2   
    60   54   60 1   
    61   54   61 1   
    62   62   63 1   
    63   62   66 1   
    64   63   64 1   
    65   63   67 1   
    66   63   68 1   
    67   64   65 2   
    68   64   69 1   
    69   69   70 1   
    70   69   76 1   
    71   70   71 1   
    72   70   73 1   
    73   70   77 1   
    74   71   72 2   
    75   71   83 1   
    76   73   74 1   
    77   73   75 1   
    78   73   78 1   
    79   74   80 1   
    80   74   81 1   
    81   74   82 1   
    82   75   79 1   
    83   83   84 1   
    84   83   91 1   
    85   84   85 1   
    86   84   87 1   
    87   84   92 1   
    88   85   86 2   
    89   85  102 1   
    90   87   88 1   
    91   87   89 1   
    92   87   93 1   
    93   88   90 1   
    94   88   94 1   
    95   88   95 1   
    96   89   96 1   
    97   89   97 1   
    98   89   98 1   
    99   90   99 1   
   100   90  100 1   
   101   90  101 1   
   102  102  103 1   
   103  102  110 1   
   104  103  104 1   
   105  103  106 1   
   106  103  111 1   
   107  104  105 2   
   108  104  114 1   
   109  106  107 1   
   110  106  112 1   
   111  106  113 1   
   112  107  108 1   
   113  107  109 1   
   114  114  115 1   
   115  114  125 1   
   116  115  116 1   
   117  115  118 1   
   118  115  126 1   
   119  116  117 2   
   120  116  134 1   
   121  118  119 1   
   122  118  127 1   
   123  118  128 1   
   124  119  120 ar  
   125  119  121 ar  
   126  120  122 ar  
   127  120  129 1   
   128  121  123 ar  
   129  121  130 1   
   130  122  124 ar  
   131  122  131 1   
   132  123  124 ar  
   133  123  132 1   
   134  124  133 1   
   135  134  135 1   
   136  134  140 1   
   137  135  136 1   
   138  135  138 1   
   139  135  141 1   
   140  136  137 2   
   141  136  148 1   
   142  138  139 1   
   143  138  142 1   
   144  138  143 1   
   145  139  140 1   
   146  139  144 1   
   147  139  145 1   
   148  140  146 1   
   149  140  147 1   
   150  148  149 1   
   151  148  157 1   
   152  149  150 1   
   153  149  152 1   
   154  149  158 1   
   155  150  151 2   
   156  150  163 1   
   157  152  153 1   
   158  152  159 1   
   159  152  160 1   
   160  153  154 1   
   161  153  161 1   
   162  153  162 1   
   163  154  155 1   
   164  154  156 1   
   165  163  164 1   
   166  163  168 1   
   167  164  165 1   
   168  164  166 1   
   169  164  167 1   
   170  170  171 1   
   171  170  172 1   
   172  173  174 1   
   173  173  175 1   
   174  176  177 1   
   175  176  178 1   
   176  179  180 1   
   177  179  181 1   
@<TRIPOS>SUBSTRUCTURE
     1 MOL         1 TEMP              0 ****  ****    0 ROOT
