@<TRIPOS>MOLECULE
MOL
  195   189     1     0     0
SMALL
resp


@<TRIPOS>ATOM
      1 C1          0.7840    4.1480    3.1040 c3        1 MOL     -0.593719
      2 C2         -0.3100    4.2770    1.9420 c         1 MOL      0.638611
      3 O1         -1.0610    3.3160    1.7220 o         1 MOL     -0.474384
      4 H1          1.7800    4.1090    2.6630 hc        1 MOL      0.154087
      5 H2          0.7150    5.0110    3.7660 hc        1 MOL      0.154087
      6 H3          0.6050    3.2360    3.6740 hc        1 MOL      0.154087
      7 N1         -0.3620    5.4210    1.2170 n         1 MOL     -0.438204
      8 C3         -1.1880    5.5130   -0.0580 c3        1 MOL     -0.496771
      9 C4         -2.6230    5.0020   -0.0480 c         1 MOL      0.927549
     10 O2         -3.1140    4.3870   -0.9850 o         1 MOL     -0.597360
     11 C5         -0.3170    4.9210   -1.1720 c3        1 MOL     -0.025624
     12 C6          1.1570    5.3830   -1.0970 c         1 MOL      0.903944
     13 O3          1.5570    6.5020   -1.4120 o         1 MOL     -0.810183
     14 O4          2.0040    4.5560   -0.8130 o         1 MOL     -0.810183
     15 H4          0.2130    6.1960    1.5080 hn        1 MOL      0.250714
     16 H5         -1.3420    6.5830   -0.1710 h1        1 MOL      0.180983
     17 H6         -0.8050    5.1450   -2.1180 hc        1 MOL      0.055031
     18 H7         -0.3310    3.8410   -1.0310 hc        1 MOL      0.055031
     19 N2         -3.2420    5.2490    1.0950 n         1 MOL     -0.663626
     20 C7         -4.6590    4.8520    1.3900 c3        1 MOL     -0.141480
     21 C8         -5.7490    5.5460    0.5370 c         1 MOL      0.402479
     22 O5         -5.5260    6.6980    0.1260 o         1 MOL     -0.532741
     23 C9         -4.8740    5.0960    2.9040 c3        1 MOL      0.098488
     24 C10        -4.8330    6.5910    3.2890 c3        1 MOL      0.097295
     25 C11        -3.9860    4.2600    3.8990 c3        1 MOL     -0.348412
     26 C12        -5.2060    6.9480    4.7180 c3        1 MOL     -0.177373
     27 H8         -2.6790    5.7710    1.7450 hn        1 MOL      0.379748
     28 H9         -4.7740    3.8160    1.0850 h1        1 MOL      0.177986
     29 H10        -5.8220    4.6600    3.2520 hc        1 MOL      0.048527
     30 H11        -5.4920    7.2310    2.7130 hc        1 MOL      0.000110
     31 H12        -3.8160    6.9610    3.1420 hc        1 MOL      0.000110
     32 H13        -4.1460    3.2680    3.4990 hc        1 MOL      0.089913
     33 H14        -2.9160    4.3730    3.7500 hc        1 MOL      0.089913
     34 H15        -4.3340    4.3550    4.9250 hc        1 MOL      0.089913
     35 H16        -5.3200    8.0330    4.8150 hc        1 MOL      0.031273
     36 H17        -6.1650    6.5080    5.0020 hc        1 MOL      0.031273
     37 H18        -4.4230    6.5720    5.3730 hc        1 MOL      0.031273
     38 N3         -6.8450    4.8450    0.1620 n         1 MOL     -0.198265
     39 C13        -7.3680    3.5450    0.6040 c3        1 MOL     -0.091908
     40 C14        -6.7210    2.3870   -0.1530 c         1 MOL      0.399515
     41 O6         -7.1140    1.2560    0.1990 o         1 MOL     -0.499370
     42 C15        -8.8930    3.6480    0.5940 c3        1 MOL     -0.139562
     43 C16        -9.4500    4.1750   -0.7460 c         1 MOL      0.670335
     44 O7         -9.6300    3.4340   -1.7460 o         1 MOL     -0.679474
     45 O8         -9.8330    5.3650   -0.8550 o         1 MOL     -0.679474
     46 H19        -7.4920    5.4400   -0.3450 hn        1 MOL      0.189705
     47 H20        -7.1480    3.3140    1.6500 h1        1 MOL      0.069536
     48 H21        -9.1910    4.3720    1.3460 hc        1 MOL      0.038375
     49 H22        -9.3290    2.6720    0.8110 hc        1 MOL      0.038375
     50 N4         -5.8960    2.6200   -1.1980 n         1 MOL     -0.251135
     51 C17        -5.0560    1.6530   -1.9850 c3        1 MOL     -0.168064
     52 C18        -5.6450    0.3500   -2.4560 c         1 MOL      0.587966
     53 O9         -6.8400    0.0880   -2.5940 o         1 MOL     -0.527747
     54 H23        -5.8000    3.5960   -1.4380 hn        1 MOL      0.281478
     55 H24        -4.2730    1.3270   -1.2930 h1        1 MOL      0.092221
     56 H25        -4.6480    2.1710   -2.8460 h1        1 MOL      0.092221
     57 N5         -4.7600   -0.5620   -2.6820 n         1 MOL     -0.442178
     58 C19        -5.2130   -1.8580   -3.3130 c3        1 MOL      0.097157
     59 C20        -5.9000   -2.7880   -2.3050 c         1 MOL      0.461870
     60 O10        -6.3900   -3.8510   -2.6350 o         1 MOL     -0.566689
     61 C21        -3.9550   -2.5860   -3.8170 c3        1 MOL     -0.317274
     62 C22        -2.8190   -2.5840   -2.7810 c         1 MOL      0.847241
     63 O11        -1.8220   -1.9670   -3.0190 o         1 MOL     -0.720390
     64 O12        -3.0570   -3.1610   -1.7360 o         1 MOL     -0.720390
     65 H26        -3.8130   -0.4510   -2.3540 hn        1 MOL      0.260876
     66 H27        -5.9530   -1.6290   -4.0850 h1        1 MOL      0.086083
     67 H28        -3.6340   -2.0920   -4.7330 hc        1 MOL      0.048754
     68 H29        -4.2400   -3.6320   -3.9250 hc        1 MOL      0.048754
     69 N6         -5.9250   -2.3970   -0.9820 n         1 MOL     -0.268702
     70 C23        -6.5310   -3.1380    0.1870 c3        1 MOL     -0.171349
     71 C24        -5.8630   -4.5190    0.4930 c         1 MOL      0.336092
     72 O13        -6.1250   -5.1290    1.5430 o         1 MOL     -0.585226
     73 H30        -5.3880   -1.5480   -0.8420 hn        1 MOL      0.246633
     74 H31        -7.5840   -3.2330   -0.0650 h1        1 MOL      0.127472
     75 H32        -6.4050   -2.5960    1.1250 h1        1 MOL      0.127472
     76 N7         -4.8790   -4.9040   -0.2490 n         1 MOL      0.205908
     77 C25        -4.0340   -6.0700    0.0160 c3        1 MOL     -0.024431
     78 C26        -3.3870   -6.0950    1.4200 c         1 MOL      0.570938
     79 O14        -3.0160   -7.1940    1.8980 o         1 MOL     -0.556951
     80 C27        -4.6360   -7.3620   -0.5860 c3        1 MOL      0.105276
     81 C28        -5.2680   -7.1130   -1.9450 c3        1 MOL     -0.187645
     82 C29        -5.6990   -8.3280   -2.6930 c         1 MOL      0.719857
     83 N8         -6.5380   -8.2770   -3.6280 n         1 MOL     -0.790080
     84 O15        -5.1770   -9.3790   -2.4930 o         1 MOL     -0.608260
     85 H33        -4.5360   -4.1960   -0.8700 hn        1 MOL      0.029673
     86 H34        -3.1160   -5.8870   -0.5290 h1        1 MOL      0.074949
     87 H35        -5.2840   -7.8420    0.1500 hc        1 MOL     -0.017534
     88 H36        -3.8040   -8.0620   -0.7070 hc        1 MOL     -0.017534
     89 H37        -4.6540   -6.4470   -2.5530 hc        1 MOL      0.038072
     90 H38        -6.1790   -6.5120   -1.8190 hc        1 MOL      0.038072
     91 H39        -6.8370   -7.3730   -3.9560 hn        1 MOL      0.344513
     92 H40        -6.6870   -9.0690   -4.2460 hn        1 MOL      0.344513
     93 N9         -3.1610   -4.9010    1.9540 n         1 MOL     -0.456193
     94 C30        -2.5820   -4.6170    3.3150 c3        1 MOL     -0.029361
     95 C31        -1.3400   -3.7550    3.4900 c         1 MOL      0.518162
     96 O16        -0.6220   -3.7670    4.4910 o         1 MOL     -0.587377
     97 C32        -3.6590   -4.1220    4.3200 c3        1 MOL      0.230112
     98 C33        -4.4000   -2.8850    3.7810 c3        1 MOL     -0.343172
     99 C34        -4.7220   -5.2010    4.6190 c3        1 MOL     -0.343172
    100 H41        -3.3520   -4.1020    1.3630 hn        1 MOL      0.196971
    101 H42        -2.3000   -5.6180    3.6590 h1        1 MOL      0.104104
    102 H43        -3.2370   -4.0020    5.3190 hc        1 MOL     -0.000443
    103 H44        -4.8500   -3.0890    2.8140 hc        1 MOL      0.084573
    104 H45        -5.1510   -2.5240    4.4940 hc        1 MOL      0.084573
    105 H46        -3.7660   -2.0070    3.6470 hc        1 MOL      0.084573
    106 H47        -5.4000   -5.3110    3.7750 hc        1 MOL      0.084573
    107 H48        -4.1790   -6.1060    4.8920 hc        1 MOL      0.084573
    108 H49        -5.2800   -4.8450    5.4770 hc        1 MOL      0.084573
    109 N10        -1.0200   -2.9550    2.4870 n         1 MOL     -0.417309
    110 C35         0.1860   -2.1890    2.3310 c3        1 MOL      0.354818
    111 C36         1.0010   -2.7070    1.2190 c         1 MOL      0.525647
    112 O17         0.4580   -3.2480    0.2300 o         1 MOL     -0.555927
    113 C37        -0.1880   -0.6670    2.3120 c3        1 MOL     -0.487468
    114 C38         1.0040    0.1980    1.8280 c         1 MOL      0.657351
    115 N11         0.9260    0.4980    0.5860 n         1 MOL     -0.651547
    116 O18         1.8920    0.5410    2.5670 o         1 MOL     -0.569887
    117 H50        -1.7340   -2.6920    1.8160 hn        1 MOL      0.267290
    118 H51         0.8740   -2.2340    3.1800 h1        1 MOL      0.038270
    119 H52        -0.5460   -0.3640    3.2970 hc        1 MOL      0.128338
    120 H53        -1.0580   -0.6820    1.6590 hc        1 MOL      0.128338
    121 H54         0.0840    0.4020    0.0310 hn        1 MOL      0.359299
    122 H55         1.6960    1.0870    0.2860 hn        1 MOL      0.359299
    123 N12         2.2890   -2.3670    1.2480 n         1 MOL     -0.647668
    124 C39         3.2450   -2.6470    0.2350 c3        1 MOL      0.277933
    125 C40         4.6560   -2.4870    0.7600 c         1 MOL      0.805079
    126 O19         4.8820   -1.6870    1.6410 o         1 MOL     -0.660677
    127 C41         2.9830   -1.8350   -1.0610 c3        1 MOL      0.018864
    128 C42         3.8150   -2.4280   -2.1890 ca        1 MOL      0.015823
    129 C43         5.0080   -1.7180   -2.5930 ca        1 MOL     -0.195703
    130 C44         3.4180   -3.6430   -2.7950 ca        1 MOL     -0.195703
    131 C45         5.7980   -2.2680   -3.5940 ca        1 MOL     -0.227299
    132 C46         4.1950   -4.1180   -3.9090 ca        1 MOL     -0.227299
    133 C47         5.4440   -3.4750   -4.1840 ca        1 MOL      0.304476
    134 O20         6.2400   -3.9500   -5.2370 oh        1 MOL     -0.515793
    135 H56         2.7770   -2.0240    2.0600 hn        1 MOL      0.300254
    136 H57         3.1480   -3.7120    0.0240 h1        1 MOL      0.011599
    137 H58         3.2780   -0.8070   -0.8970 hc        1 MOL      0.030613
    138 H59         1.9690   -1.6620   -1.4290 hc        1 MOL      0.030613
    139 H60         5.3950   -0.7790   -2.2290 ha        1 MOL      0.166132
    140 H61         2.4690   -4.0380   -2.4780 ha        1 MOL      0.166132
    141 H62         6.6860   -1.7470   -3.9260 ha        1 MOL      0.151098
    142 H63         3.8170   -4.9020   -4.5350 ha        1 MOL      0.151098
    143 H64         6.9510   -3.3020   -5.3390 ho        1 MOL      0.352555
    144 N13         5.6810   -3.1740    0.2580 n         1 MOL     -0.963005
    145 C48         7.0780   -2.8750    0.6470 c3        1 MOL      0.663668
    146 C49         7.8660   -2.2310   -0.4570 c         1 MOL      0.456017
    147 O21         8.3430   -2.9380   -1.3530 o         1 MOL     -0.529180
    148 C50         7.6590   -4.1400    1.2270 c3        1 MOL     -0.106239
    149 C51         9.0740   -3.9440    1.7830 c3        1 MOL     -0.280806
    150 C52         9.7050   -5.2520    2.2250 c         1 MOL      0.703604
    151 O22        10.5940   -5.7900    1.5170 o         1 MOL     -0.683324
    152 O23         9.3820   -5.8480    3.3540 o         1 MOL     -0.683324
    153 H65         5.5570   -3.7950   -0.5250 hn        1 MOL      0.365714
    154 H66         7.0940   -2.2270    1.5200 h1        1 MOL      0.069693
    155 H67         7.6830   -4.8690    0.4170 hc        1 MOL      0.022851
    156 H68         6.9780   -4.3590    2.0590 hc        1 MOL      0.022851
    157 H69         9.0380   -3.2230    2.6040 hc        1 MOL      0.059482
    158 H70         9.6570   -3.3850    1.0520 hc        1 MOL      0.059482
    159 N14         7.9910   -0.8720   -0.5110 n         1 MOL     -0.756415
    160 C53         7.3720    0.0850    0.4770 c3        1 MOL      0.409326
    161 C54         8.1150    0.1590    1.8280 c         1 MOL      0.342806
    162 O24         9.2000   -0.3330    2.0540 o         1 MOL     -0.492862
    163 C55         7.1670    1.5650   -0.0960 c3        1 MOL      0.016949
    164 C56         6.2560    1.6170   -1.4000 c3        1 MOL     -0.086398
    165 C57         6.0430    3.0770   -1.8610 c         1 MOL      0.718910
    166 O25         4.9030    3.5700   -2.0120 o         1 MOL     -0.679306
    167 O26         7.0340    3.7370   -2.1790 o         1 MOL     -0.679306
    168 H71         8.6630   -0.4610   -1.1450 hn        1 MOL      0.383387
    169 H72         6.3860   -0.3080    0.7170 h1        1 MOL     -0.045061
    170 H73         8.1410    2.0180   -0.3150 hc        1 MOL     -0.043334
    171 H74         6.7060    2.2160    0.6430 hc        1 MOL     -0.043334
    172 H75         5.2840    1.1820   -1.1650 hc        1 MOL     -0.014034
    173 H76         6.7510    1.1820   -2.2700 hc        1 MOL     -0.014034
    174 N15         7.3670    0.6710    2.8000 n         1 MOL     -0.396106
    175 C58         7.7080    0.6690    4.2550 c3        1 MOL     -0.136339
    176 H77         7.0140    0.0210    4.7890 h1        1 MOL      0.085090
    177 H78         8.7260    0.3020    4.3890 h1        1 MOL      0.085090
    178 H79         7.6320    1.6830    4.6470 h1        1 MOL      0.085090
    179 H80         6.5140    1.1380    2.5450 hn        1 MOL      0.327851
    180 Ca1         4.1630    5.9850   -1.4810 Ca        1 MOL      1.654689
    181 O27         6.0640    6.0890   -3.2390 oh        1 MOL     -0.794992
    182 H81         6.4710    6.3590   -4.0690 ho        1 MOL      0.370647
    183 H82         6.6290    5.3890   -2.9070 ho        1 MOL      0.370647
    184 O28         4.0010    8.4620   -2.2040 oh        1 MOL     -0.794992
    185 H83         3.5400    8.7750   -2.9790 ho        1 MOL      0.370647
    186 H84         4.6270    9.1590   -1.9990 ho        1 MOL      0.370647
    187 O29         6.4270    7.2600   -0.3580 oh        1 MOL     -0.794992
    188 H85         6.4540    7.1060    0.5870 ho        1 MOL      0.370647
    189 H86         6.7810    8.1520   -0.4590 ho        1 MOL      0.370647
    190 O30         5.1110    4.8710    0.9140 oh        1 MOL     -0.794992
    191 H87         4.9630    4.2470    1.6310 ho        1 MOL      0.370647
    192 H88         5.4980    5.6330    1.3520 ho        1 MOL      0.370647
    193 O31         3.1550    5.4150   -3.9120 oh        1 MOL     -0.794992
    194 H89         2.4350    4.8410   -4.1900 ho        1 MOL      0.370647
    195 H90         3.5260    5.7470   -4.7280 ho        1 MOL      0.370647
@<TRIPOS>BOND
     1    1    2 1   
     2    1    4 1   
     3    1    5 1   
     4    1    6 1   
     5    2    3 2   
     6    2    7 1   
     7    7    8 1   
     8    7   15 1   
     9    8    9 1   
    10    8   11 1   
    11    8   16 1   
    12    9   10 2   
    13    9   19 1   
    14   11   12 1   
    15   11   17 1   
    16   11   18 1   
    17   12   13 1   
    18   12   14 1   
    19   19   20 1   
    20   19   27 1   
    21   20   21 1   
    22   20   23 1   
    23   20   28 1   
    24   21   22 2   
    25   21   38 1   
    26   23   24 1   
    27   23   25 1   
    28   23   29 1   
    29   24   26 1   
    30   24   30 1   
    31   24   31 1   
    32   25   32 1   
    33   25   33 1   
    34   25   34 1   
    35   26   35 1   
    36   26   36 1   
    37   26   37 1   
    38   38   39 1   
    39   38   46 1   
    40   39   40 1   
    41   39   42 1   
    42   39   47 1   
    43   40   41 2   
    44   40   50 1   
    45   42   43 1   
    46   42   48 1   
    47   42   49 1   
    48   43   44 1   
    49   43   45 1   
    50   50   51 1   
    51   50   54 1   
    52   51   52 1   
    53   51   55 1   
    54   51   56 1   
    55   52   53 2   
    56   52   57 1   
    57   57   58 1   
    58   57   65 1   
    59   58   59 1   
    60   58   61 1   
    61   58   66 1   
    62   59   60 2   
    63   59   69 1   
    64   61   62 1   
    65   61   67 1   
    66   61   68 1   
    67   62   63 1   
    68   62   64 1   
    69   69   70 1   
    70   69   73 1   
    71   70   71 1   
    72   70   74 1   
    73   70   75 1   
    74   71   72 2   
    75   71   76 1   
    76   76   77 1   
    77   76   85 1   
    78   77   78 1   
    79   77   80 1   
    80   77   86 1   
    81   78   79 2   
    82   78   93 1   
    83   80   81 1   
    84   80   87 1   
    85   80   88 1   
    86   81   82 1   
    87   81   89 1   
    88   81   90 1   
    89   82   83 1   
    90   82   84 2   
    91   83   91 1   
    92   83   92 1   
    93   93   94 1   
    94   93  100 1   
    95   94   95 1   
    96   94   97 1   
    97   94  101 1   
    98   95   96 2   
    99   95  109 1   
   100   97   98 1   
   101   97   99 1   
   102   97  102 1   
   103   98  103 1   
   104   98  104 1   
   105   98  105 1   
   106   99  106 1   
   107   99  107 1   
   108   99  108 1   
   109  109  110 1   
   110  109  117 1   
   111  110  111 1   
   112  110  113 1   
   113  110  118 1   
   114  111  112 2   
   115  111  123 1   
   116  113  114 1   
   117  113  119 1   
   118  113  120 1   
   119  114  115 1   
   120  114  116 2   
   121  115  121 1   
   122  115  122 1   
   123  123  124 1   
   124  123  135 1   
   125  124  125 1   
   126  124  127 1   
   127  124  136 1   
   128  125  126 2   
   129  125  144 1   
   130  127  128 1   
   131  127  137 1   
   132  127  138 1   
   133  128  129 ar  
   134  128  130 ar  
   135  129  131 ar  
   136  129  139 1   
   137  130  132 ar  
   138  130  140 1   
   139  131  133 ar  
   140  131  141 1   
   141  132  133 ar  
   142  132  142 1   
   143  133  134 1   
   144  134  143 1   
   145  144  145 1   
   146  144  153 1   
   147  145  146 1   
   148  145  148 1   
   149  145  154 1   
   150  146  147 2   
   151  146  159 1   
   152  148  149 1   
   153  148  155 1   
   154  148  156 1   
   155  149  150 1   
   156  149  157 1   
   157  149  158 1   
   158  150  151 1   
   159  150  152 1   
   160  159  160 1   
   161  159  168 1   
   162  160  161 1   
   163  160  163 1   
   164  160  169 1   
   165  161  162 2   
   166  161  174 1   
   167  163  164 1   
   168  163  170 1   
   169  163  171 1   
   170  164  165 1   
   171  164  172 1   
   172  164  173 1   
   173  165  166 1   
   174  165  167 1   
   175  174  175 1   
   176  174  179 1   
   177  175  176 1   
   178  175  177 1   
   179  175  178 1   
   180  181  182 1   
   181  181  183 1   
   182  184  185 1   
   183  184  186 1   
   184  187  188 1   
   185  187  189 1   
   186  190  191 1   
   187  190  192 1   
   188  193  194 1   
   189  193  195 1   
@<TRIPOS>SUBSTRUCTURE
     1 MOL         1 TEMP              0 ****  ****    0 ROOT
