@<TRIPOS>MOLECULE
MOL
  195   189     1     0     0
SMALL
resp


@<TRIPOS>ATOM
      1 C1         -6.9080    8.0700    4.3480 c3        1 MOL     -0.371871
      2 C2         -6.7240    7.2530    3.0690 c         1 MOL      0.722352
      3 O1         -7.3420    6.2330    2.9250 o         1 MOL     -0.607753
      4 H1         -7.6520    7.5880    4.9820 hc        1 MOL      0.097514
      5 H2         -5.9600    8.1270    4.8830 hc        1 MOL      0.097514
      6 H3         -7.2430    9.0750    4.0930 hc        1 MOL      0.097514
      7 N1         -5.9610    7.6750    2.0160 n         1 MOL     -0.583103
      8 C3         -5.8070    7.0680    0.7470 c3        1 MOL      0.198040
      9 C4         -4.8960    5.8520    0.7710 c         1 MOL      0.671675
     10 O2         -3.8720    5.8910    1.5180 o         1 MOL     -0.541143
     11 C5         -5.4020    8.1190   -0.2800 c3        1 MOL     -0.234308
     12 C6         -4.2170    8.9470    0.1010 c         1 MOL      0.659103
     13 O3         -3.0500    8.4590   -0.0600 o         1 MOL     -0.611619
     14 O4         -4.4150   10.0510    0.6620 o         1 MOL     -0.611619
     15 H4         -5.3100    8.4540    2.0260 hn        1 MOL      0.284764
     16 H5         -6.7880    6.6870    0.4590 h1        1 MOL      0.017054
     17 H6         -6.3070    8.7110   -0.4090 hc        1 MOL      0.045931
     18 H7         -5.3460    7.6320   -1.2480 hc        1 MOL      0.045931
     19 N2         -5.2650    4.7240    0.1420 n         1 MOL     -0.631434
     20 C7         -4.5160    3.4480    0.1500 c3        1 MOL      0.033636
     21 C8         -3.2410    3.6040   -0.5990 c         1 MOL      0.695297
     22 O5         -3.2570    4.2600   -1.6250 o         1 MOL     -0.586319
     23 C9         -5.3240    2.3550   -0.4920 c3        1 MOL     -0.070443
     24 C10        -6.3540    1.8890    0.5450 c3        1 MOL      0.105273
     25 C11        -7.3430    0.6830    0.0470 c3        1 MOL     -0.415073
     26 C12        -8.2250    0.9600   -1.1540 c3        1 MOL      0.106921
     27 N3         -9.1570   -0.0760   -1.4990 n4        1 MOL     -0.258833
     28 H8         -6.1850    4.7350   -0.2980 hn        1 MOL      0.287190
     29 H9         -4.1800    3.2830    1.1680 h1        1 MOL      0.052170
     30 H10        -4.6660    1.5180   -0.7270 hc        1 MOL      0.058606
     31 H11        -5.7240    2.8420   -1.3850 hc        1 MOL      0.058606
     32 H12        -6.9620    2.7660    0.7440 hc        1 MOL      0.025271
     33 H13        -5.9150    1.6120    1.5070 hc        1 MOL      0.025271
     34 H14        -7.9580    0.3010    0.8660 hc        1 MOL      0.125967
     35 H15        -6.7310   -0.1770   -0.2080 hc        1 MOL      0.125967
     36 H16        -7.5520    1.1410   -1.9870 hx        1 MOL      0.069235
     37 H17        -8.7990    1.8700   -0.9870 hx        1 MOL      0.069235
     38 H18        -9.8110   -0.0950   -0.7210 hn        1 MOL      0.280116
     39 H19        -9.7420    0.2550   -2.2650 hn        1 MOL      0.280116
     40 H20        -8.8730   -1.0240   -1.7040 hn        1 MOL      0.280116
     41 N4         -2.1810    3.0030   -0.1020 n         1 MOL     -0.545988
     42 C13        -0.9310    2.7210   -0.8310 c3        1 MOL      0.401491
     43 C14        -0.2870    1.5990    0.0330 c         1 MOL      0.557533
     44 O6         -0.0530    1.8120    1.1950 o         1 MOL     -0.562127
     45 C15        -0.0430    3.9200   -0.9220 c3        1 MOL     -0.335492
     46 C16         1.4010    3.5400   -1.2650 c         1 MOL      0.711073
     47 O7          2.3880    4.0490   -0.7090 o         1 MOL     -0.690063
     48 O8          1.5010    2.7400   -2.2410 o         1 MOL     -0.690063
     49 H21        -2.2080    2.5910    0.8180 hn        1 MOL      0.273291
     50 H22        -1.2360    2.4270   -1.8280 h1        1 MOL     -0.020475
     51 H23        -0.0620    4.4520    0.0240 hc        1 MOL      0.073348
     52 H24        -0.4160    4.5370   -1.7460 hc        1 MOL      0.073348
     53 N5         -0.0190    0.3390   -0.4380 n         1 MOL     -0.336995
     54 C17        -0.6880   -0.4430   -1.5470 c3        1 MOL     -0.550968
     55 C18        -2.1450   -0.8540   -1.2390 c         1 MOL      0.716518
     56 O9         -2.6560   -0.4920   -0.1860 o         1 MOL     -0.522997
     57 H25         0.5410   -0.1680    0.2340 hn        1 MOL      0.284869
     58 H26        -0.1100   -1.3640   -1.6390 h1        1 MOL      0.207853
     59 H27        -0.7470    0.1730   -2.4510 h1        1 MOL      0.207853
     60 N6         -2.7820   -1.5020   -2.2230 n         1 MOL     -0.558852
     61 C19        -4.1550   -2.1730   -2.2020 c3        1 MOL      0.358120
     62 C20        -4.1100   -3.6950   -2.6850 c         1 MOL      0.445663
     63 O10        -3.1000   -4.1780   -3.2270 o         1 MOL     -0.531165
     64 C21        -5.1530   -1.3190   -2.9190 c3        1 MOL     -0.400112
     65 C22        -6.6710   -1.6300   -2.8410 c         1 MOL      0.615684
     66 O11        -7.1220   -2.1780   -1.7920 o         1 MOL     -0.658149
     67 O12        -7.4970   -1.1340   -3.6470 o         1 MOL     -0.658149
     68 H28        -2.2640   -1.6400   -3.0750 hn        1 MOL      0.285696
     69 H29        -4.5120   -2.2790   -1.1810 h1        1 MOL     -0.001327
     70 H30        -4.8200   -1.1400   -3.9410 hc        1 MOL      0.102853
     71 H31        -5.1190   -0.3190   -2.4920 hc        1 MOL      0.102853
     72 N7         -5.2020   -4.4410   -2.5460 n         1 MOL     -0.190617
     73 C23        -5.2780   -5.8560   -2.8250 c3        1 MOL     -0.180386
     74 C24        -4.6890   -6.6850   -1.6980 c         1 MOL      0.591375
     75 O13        -3.6980   -7.3760   -1.9550 o         1 MOL     -0.546987
     76 H32        -5.9160   -4.0390   -1.9520 hn        1 MOL      0.189499
     77 H33        -4.8110   -6.1550   -3.7580 h1        1 MOL      0.101322
     78 H34        -6.3260   -6.1150   -2.9620 h1        1 MOL      0.101322
     79 N8         -5.1300   -6.4030   -0.4940 n         1 MOL     -0.479821
     80 C25        -4.4660   -6.5500    0.8200 c3        1 MOL      0.033616
     81 C26        -3.7020   -5.2120    1.1510 c         1 MOL      0.557803
     82 O14        -4.0960   -4.1530    0.7400 o         1 MOL     -0.509745
     83 C27        -5.3770   -7.0740    1.9760 c3        1 MOL      0.309449
     84 C28        -6.5340   -6.1170    2.3660 c3        1 MOL     -0.316659
     85 O15        -5.9870   -8.2860    1.5130 oh        1 MOL     -0.581955
     86 H35        -5.7780   -5.6270   -0.4630 hn        1 MOL      0.289310
     87 H36        -3.6350   -7.2530    0.6970 h1        1 MOL      0.032431
     88 H37        -4.7080   -7.1700    2.8310 h1        1 MOL     -0.021297
     89 H38        -5.2720   -8.8860    1.2880 ho        1 MOL      0.382208
     90 H39        -7.3700   -6.3210    1.6930 hc        1 MOL      0.097029
     91 H40        -6.7800   -6.3040    3.4110 hc        1 MOL      0.097029
     92 H41        -6.2280   -5.0690    2.4060 hc        1 MOL      0.097029
     93 N9         -2.5960   -5.2620    1.9270 n         1 MOL     -0.445912
     94 C29        -1.8660   -4.1430    2.4530 c3        1 MOL      0.084082
     95 C30        -0.7760   -3.8110    1.4660 c         1 MOL      0.624404
     96 O16        -0.5530   -2.6180    1.3250 o         1 MOL     -0.584173
     97 C31        -1.3080   -4.4880    3.8230 c3        1 MOL      0.039914
     98 C32        -2.3290   -5.0300    4.8480 c3        1 MOL      0.036622
     99 C33        -0.4990   -3.3750    4.4610 c3        1 MOL     -0.340883
    100 C34        -3.6880   -4.2360    4.9590 c3        1 MOL     -0.371734
    101 H42        -2.3550   -6.1800    2.2590 hn        1 MOL      0.243601
    102 H43        -2.4840   -3.2420    2.4070 h1        1 MOL      0.102281
    103 H44        -0.6800   -5.3360    3.5790 hc        1 MOL      0.009871
    104 H45        -1.8200   -5.0730    5.8070 hc        1 MOL      0.008309
    105 H46        -2.4780   -6.0920    4.6510 hc        1 MOL      0.008309
    106 H47        -0.7960   -2.3460    4.2380 hc        1 MOL      0.101944
    107 H48        -0.4280   -3.4190    5.5530 hc        1 MOL      0.101944
    108 H49         0.5560   -3.4620    4.1990 hc        1 MOL      0.101944
    109 H50        -4.2870   -4.4270    5.8470 hc        1 MOL      0.108643
    110 H51        -3.3800   -3.2080    5.1280 hc        1 MOL      0.108643
    111 H52        -4.2570   -4.2770    4.0260 hc        1 MOL      0.108643
    112 N10        -0.1340   -4.7530    0.7170 n         1 MOL     -0.430583
    113 C35         0.9390   -4.4080   -0.2210 c3        1 MOL     -0.152055
    114 C36         2.1900   -5.2300    0.1660 c         1 MOL      0.542060
    115 O17         2.0360   -6.3780    0.6250 o         1 MOL     -0.510616
    116 C37         0.4300   -4.7530   -1.6260 c3        1 MOL      0.295708
    117 C38         0.0150   -6.2230   -1.8470 c3        1 MOL     -0.131194
    118 O18        -0.6670   -3.8960   -1.9700 oh        1 MOL     -0.623181
    119 H53        -0.4050   -5.6880    0.9740 hn        1 MOL      0.255779
    120 H54         1.1980   -3.3540   -0.2510 h1        1 MOL      0.185476
    121 H55         1.2290   -4.5270   -2.3360 h1        1 MOL      0.002682
    122 H56        -1.4300   -4.4630   -2.1380 ho        1 MOL      0.405135
    123 H57        -0.8530   -6.5080   -1.2630 hc        1 MOL      0.040055
    124 H58        -0.0530   -6.5470   -2.8870 hc        1 MOL      0.040055
    125 H59         0.8190   -6.8340   -1.4350 hc        1 MOL      0.040055
    126 N11         3.4100   -4.6360    0.1410 n         1 MOL     -0.444917
    127 C39         4.7260   -5.2690    0.3820 c3        1 MOL     -0.065828
    128 C40         5.7780   -4.2850    0.9560 c         1 MOL      0.622983
    129 O19         6.2680   -4.4410    2.0380 o         1 MOL     -0.549677
    130 C41         5.1390   -6.1110   -0.8380 c3        1 MOL      0.248710
    131 C42         6.4380   -6.8600   -0.6480 c3        1 MOL     -0.340846
    132 O20         5.2550   -5.4740   -2.0840 oh        1 MOL     -0.634847
    133 H60         3.4100   -3.7220   -0.2920 hn        1 MOL      0.237596
    134 H61         4.5060   -6.0520    1.1020 h1        1 MOL      0.110681
    135 H62         4.4510   -6.9280   -1.0470 h1        1 MOL      0.071264
    136 H63         4.5280   -5.5850   -2.7000 ho        1 MOL      0.408581
    137 H64         7.2940   -6.2820   -0.2940 hc        1 MOL      0.095874
    138 H65         6.2640   -7.7240   -0.0000 hc        1 MOL      0.095874
    139 H66         6.6880   -7.3110   -1.6050 hc        1 MOL      0.095874
    140 N12         6.1290   -3.1910    0.2220 n         1 MOL     -0.334693
    141 C43         7.0090   -2.1130    0.6060 c3        1 MOL     -0.133856
    142 C44         6.6300   -0.7350   -0.1390 c         1 MOL      0.567778
    143 O21         6.2170   -0.8060   -1.2530 o         1 MOL     -0.489431
    144 C45         8.4360   -2.5720    0.1890 c3        1 MOL     -0.222827
    145 C46         9.4800   -1.7110    0.8450 c3        1 MOL      0.128734
    146 C47        10.8980   -2.0530    0.3200 c3        1 MOL     -0.213686
    147 C48        11.9950   -1.3670    1.1530 c3        1 MOL      0.197248
    148 N13        13.3450   -1.4250    0.6380 n4        1 MOL     -0.212337
    149 H67         5.7170   -3.1130   -0.7020 hn        1 MOL      0.252916
    150 H68         6.9770   -1.9530    1.6730 h1        1 MOL      0.115195
    151 H69         8.5110   -2.5740   -0.8970 hc        1 MOL      0.111056
    152 H70         8.6190   -3.6140    0.4250 hc        1 MOL      0.111056
    153 H71         9.4270   -1.6900    1.9330 hc        1 MOL      0.007946
    154 H72         9.2630   -0.6720    0.6350 hc        1 MOL      0.007946
    155 H73        11.0000   -1.7680   -0.7290 hc        1 MOL      0.062940
    156 H74        11.0150   -3.1270    0.4530 hc        1 MOL      0.062940
    157 H75        11.9280   -1.7420    2.1770 hx        1 MOL      0.022909
    158 H76        11.7100   -0.3190    1.2600 hx        1 MOL      0.022909
    159 H77        13.5030   -0.8510   -0.1870 hn        1 MOL      0.216017
    160 H78        14.0070   -1.2520    1.3700 hn        1 MOL      0.216017
    161 H79        13.5200   -2.3610    0.2940 hn        1 MOL      0.216017
    162 N14         6.8120    0.4040    0.5410 n         1 MOL     -0.339973
    163 C49         6.8050    1.7730    0.0280 c3        1 MOL      0.003026
    164 C50         5.4240    2.3500   -0.2820 c         1 MOL      0.571665
    165 O22         5.3880    3.1020   -1.2560 o         1 MOL     -0.649985
    166 C51         7.6380    2.6890    0.9590 c3        1 MOL     -0.115020
    167 C52         8.1320    4.0460    0.3170 c3        1 MOL     -0.015593
    168 C53         7.0430    5.1310    0.1870 c         1 MOL      0.724935
    169 O23         6.9540    5.7300   -0.9130 o         1 MOL     -0.785573
    170 O24         6.0500    5.2590    0.9670 o         1 MOL     -0.785573
    171 H80         7.2260    0.3640    1.4560 hn        1 MOL      0.189191
    172 H81         7.4060    1.6690   -0.8840 h1        1 MOL      0.092144
    173 H82         8.5740    2.1650    1.1640 hc        1 MOL      0.052934
    174 H83         7.1390    2.9090    1.8990 hc        1 MOL      0.052934
    175 H84         8.6260    4.0150   -0.6540 hc        1 MOL      0.007091
    176 H85         8.9250    4.3130    1.0290 hc        1 MOL      0.007091
    177 N15         4.2460    2.1470    0.3750 n         1 MOL     -0.273059
    178 C54         4.0680    1.5530    1.7030 c3        1 MOL     -0.136718
    179 H86         3.0340    1.6830    2.0230 h1        1 MOL      0.075806
    180 H87         4.3050    0.4900    1.6610 h1        1 MOL      0.075806
    181 H88         4.7320    2.0450    2.4140 h1        1 MOL      0.075806
    182 H89         3.4690    2.5880   -0.1000 hn        1 MOL      0.204973
    183 Ca1         4.3720    5.7620   -0.8970 Ca        1 MOL      1.758028
    184 O25         4.0150    5.2210   -3.5390 oh        1 MOL     -0.846832
    185 H90         4.1110    5.6350   -4.3990 ho        1 MOL      0.428437
    186 H91         4.0250    4.2810   -3.7140 ho        1 MOL      0.428437
    187 O26         3.3600    6.5080    1.4290 oh        1 MOL     -0.846832
    188 H92         2.4010    6.5200    1.5260 ho        1 MOL      0.428437
    189 H93         3.6870    6.7500    2.2980 ho        1 MOL      0.428437
    190 O27         2.2280    7.1320   -1.6740 oh        1 MOL     -0.846832
    191 H94         1.5580    6.9570   -2.3320 ho        1 MOL      0.428437
    192 H95         1.9110    7.9000   -1.2030 ho        1 MOL      0.428437
    193 O28         5.0900    8.3990   -1.1600 oh        1 MOL     -0.846832
    194 H96         5.1010    9.2480   -0.7240 ho        1 MOL      0.428437
    195 H97         5.9100    8.3680   -1.6560 ho        1 MOL      0.428437
@<TRIPOS>BOND
     1    1    2 1   
     2    1    4 1   
     3    1    5 1   
     4    1    6 1   
     5    2    3 2   
     6    2    7 1   
     7    7    8 1   
     8    7   15 1   
     9    8    9 1   
    10    8   11 1   
    11    8   16 1   
    12    9   10 2   
    13    9   19 1   
    14   11   12 1   
    15   11   17 1   
    16   11   18 1   
    17   12   13 1   
    18   12   14 1   
    19   19   20 1   
    20   19   28 1   
    21   20   21 1   
    22   20   23 1   
    23   20   29 1   
    24   21   22 2   
    25   21   41 1   
    26   23   24 1   
    27   23   30 1   
    28   23   31 1   
    29   24   25 1   
    30   24   32 1   
    31   24   33 1   
    32   25   26 1   
    33   25   34 1   
    34   25   35 1   
    35   26   27 1   
    36   26   36 1   
    37   26   37 1   
    38   27   38 1   
    39   27   39 1   
    40   27   40 1   
    41   41   42 1   
    42   41   49 1   
    43   42   43 1   
    44   42   45 1   
    45   42   50 1   
    46   43   44 2   
    47   43   53 1   
    48   45   46 1   
    49   45   51 1   
    50   45   52 1   
    51   46   47 1   
    52   46   48 1   
    53   53   54 1   
    54   53   57 1   
    55   54   55 1   
    56   54   58 1   
    57   54   59 1   
    58   55   56 2   
    59   55   60 1   
    60   60   61 1   
    61   60   68 1   
    62   61   62 1   
    63   61   64 1   
    64   61   69 1   
    65   62   63 2   
    66   62   72 1   
    67   64   65 1   
    68   64   70 1   
    69   64   71 1   
    70   65   66 1   
    71   65   67 1   
    72   72   73 1   
    73   72   76 1   
    74   73   74 1   
    75   73   77 1   
    76   73   78 1   
    77   74   75 2   
    78   74   79 1   
    79   79   80 1   
    80   79   86 1   
    81   80   81 1   
    82   80   83 1   
    83   80   87 1   
    84   81   82 2   
    85   81   93 1   
    86   83   84 1   
    87   83   85 1   
    88   83   88 1   
    89   84   90 1   
    90   84   91 1   
    91   84   92 1   
    92   85   89 1   
    93   93   94 1   
    94   93  101 1   
    95   94   95 1   
    96   94   97 1   
    97   94  102 1   
    98   95   96 2   
    99   95  112 1   
   100   97   98 1   
   101   97   99 1   
   102   97  103 1   
   103   98  100 1   
   104   98  104 1   
   105   98  105 1   
   106   99  106 1   
   107   99  107 1   
   108   99  108 1   
   109  100  109 1   
   110  100  110 1   
   111  100  111 1   
   112  112  113 1   
   113  112  119 1   
   114  113  114 1   
   115  113  116 1   
   116  113  120 1   
   117  114  115 2   
   118  114  126 1   
   119  116  117 1   
   120  116  118 1   
   121  116  121 1   
   122  117  123 1   
   123  117  124 1   
   124  117  125 1   
   125  118  122 1   
   126  126  127 1   
   127  126  133 1   
   128  127  128 1   
   129  127  130 1   
   130  127  134 1   
   131  128  129 2   
   132  128  140 1   
   133  130  131 1   
   134  130  132 1   
   135  130  135 1   
   136  131  137 1   
   137  131  138 1   
   138  131  139 1   
   139  132  136 1   
   140  140  141 1   
   141  140  149 1   
   142  141  142 1   
   143  141  144 1   
   144  141  150 1   
   145  142  143 2   
   146  142  162 1   
   147  144  145 1   
   148  144  151 1   
   149  144  152 1   
   150  145  146 1   
   151  145  153 1   
   152  145  154 1   
   153  146  147 1   
   154  146  155 1   
   155  146  156 1   
   156  147  148 1   
   157  147  157 1   
   158  147  158 1   
   159  148  159 1   
   160  148  160 1   
   161  148  161 1   
   162  162  163 1   
   163  162  171 1   
   164  163  164 1   
   165  163  166 1   
   166  163  172 1   
   167  164  165 2   
   168  164  177 1   
   169  166  167 1   
   170  166  173 1   
   171  166  174 1   
   172  167  168 1   
   173  167  175 1   
   174  167  176 1   
   175  168  169 1   
   176  168  170 1   
   177  177  178 1   
   178  177  182 1   
   179  178  179 1   
   180  178  180 1   
   181  178  181 1   
   182  184  185 1   
   183  184  186 1   
   184  187  188 1   
   185  187  189 1   
   186  190  191 1   
   187  190  192 1   
   188  193  194 1   
   189  193  195 1   
@<TRIPOS>SUBSTRUCTURE
     1 MOL         1 TEMP              0 ****  ****    0 ROOT
