@<TRIPOS>MOLECULE
MOL
  178   175     1     0     0
SMALL
resp


@<TRIPOS>ATOM
      1 C1          8.6790   -6.6880   -1.8840 c3        1 MOL     -0.309718
      2 C2          7.7050   -5.4110   -2.0140 c         1 MOL      0.735602
      3 O1          6.7800   -5.3980   -2.7860 o         1 MOL     -0.567073
      4 H1          8.4030   -7.2660   -1.0030 hc        1 MOL      0.069378
      5 H2          8.5810   -7.3110   -2.7720 hc        1 MOL      0.069378
      6 H3          9.7110   -6.3500   -1.7890 hc        1 MOL      0.069378
      7 N1          7.9160   -4.3160   -1.3040 n         1 MOL     -0.839964
      8 C3          8.6130   -4.1870    0.0300 c3        1 MOL      0.551903
      9 C4          9.5340   -2.9190    0.1410 c         1 MOL      0.314628
     10 O2          9.1650   -1.8250   -0.3240 o         1 MOL     -0.421999
     11 C5          7.6540   -4.3000    1.1970 c3        1 MOL     -0.408005
     12 C6          6.6440   -3.1620    1.2670 c         1 MOL      0.774777
     13 O3          5.9570   -2.9990    2.3240 o         1 MOL     -0.683255
     14 O4          6.5350   -2.3730    0.3010 o         1 MOL     -0.683255
     15 H4          7.3770   -3.5160   -1.6040 hn        1 MOL      0.471377
     16 H5          9.3000   -5.0300    0.1160 h1        1 MOL     -0.087619
     17 H6          8.2400   -4.3510    2.1170 hc        1 MOL      0.091259
     18 H7          7.0550   -5.1950    1.0690 hc        1 MOL      0.091259
     19 N2         10.6810   -3.0530    0.8110 n         1 MOL     -0.453370
     20 C7         11.7720   -2.0930    1.0020 c3        1 MOL      0.185878
     21 C8         11.5270   -0.8330    1.8070 c         1 MOL      0.336374
     22 O5         12.4250   -0.2530    2.4340 o         1 MOL     -0.535459
     23 C9         12.5110   -1.7840   -0.3210 c3        1 MOL     -0.203284
     24 H8         10.8440   -3.9610    1.2420 hn        1 MOL      0.305105
     25 H9         12.5080   -2.6790    1.5550 h1        1 MOL      0.035651
     26 H10        13.5030   -1.3730   -0.1450 hc        1 MOL      0.071523
     27 H11        12.6580   -2.6650   -0.9440 hc        1 MOL      0.071523
     28 H12        11.9680   -1.1080   -0.9850 hc        1 MOL      0.071523
     29 N3         10.3150   -0.3510    1.6530 n         1 MOL     -0.059310
     30 C10         9.6960    0.8590    2.2540 c3        1 MOL      0.031956
     31 C11         8.1590    0.9310    2.2550 c         1 MOL      0.351328
     32 O6          7.4610   -0.0180    1.8340 o         1 MOL     -0.439013
     33 C12        10.2330    2.1450    1.6100 c3        1 MOL     -0.265513
     34 C13         9.7370    2.4390    0.2170 c         1 MOL      0.711177
     35 O7         10.1590    3.4500   -0.4600 o         1 MOL     -0.694198
     36 O8          8.9850    1.6470   -0.3880 o         1 MOL     -0.694198
     37 H13         9.6440   -0.8290    1.0670 hn        1 MOL      0.024449
     38 H14        10.0700    0.9060    3.2690 h1        1 MOL      0.077245
     39 H15        11.3140    2.0800    1.5320 hc        1 MOL      0.074679
     40 H16         9.8750    2.9690    2.2190 hc        1 MOL      0.074679
     41 N4          7.4960    2.0320    2.7270 n         1 MOL     -0.348536
     42 C14         6.0320    2.2040    2.8180 c3        1 MOL     -0.203276
     43 C15         5.2420    2.1940    1.5020 c         1 MOL      0.578168
     44 O9          5.7680    1.9430    0.4110 o         1 MOL     -0.570983
     45 H17         7.9780    2.7200    3.3010 hn        1 MOL      0.302767
     46 H18         5.8000    3.1380    3.3260 h1        1 MOL      0.120377
     47 H19         5.5260    1.5010    3.4680 h1        1 MOL      0.120377
     48 N5          3.9380    2.2940    1.6850 n         1 MOL     -0.517519
     49 C16         3.0090    2.1910    0.4760 c3        1 MOL      0.067339
     50 C17         1.7420    3.1400    0.5240 c         1 MOL      0.414887
     51 O10         0.9940    3.2590    1.5240 o         1 MOL     -0.443687
     52 C18         2.5560    0.7420    0.3580 c3        1 MOL     -0.174493
     53 C19         3.7590   -0.3240    0.4360 c         1 MOL      0.486400
     54 N6          4.1540   -0.9660    1.4920 n         1 MOL     -0.536889
     55 O11         4.3060   -0.5510   -0.6540 o         1 MOL     -0.534428
     56 H20         3.6080    2.6660    2.5650 hn        1 MOL      0.316006
     57 H21         3.5600    2.4500   -0.4320 h1        1 MOL      0.084834
     58 H22         1.8780    0.6160   -0.4850 hc        1 MOL      0.114347
     59 H23         1.9440    0.6230    1.2490 hc        1 MOL      0.114347
     60 H24         3.6980   -0.7230    2.3630 hn        1 MOL      0.304244
     61 H25         5.0190   -1.4920    1.4790 hn        1 MOL      0.304244
     62 N7          1.4810    3.6650   -0.6320 n         1 MOL     -0.398430
     63 C20         0.2520    4.4060   -0.8510 c3        1 MOL     -0.002049
     64 C21        -0.1930    4.3740   -2.2980 c         1 MOL      0.558874
     65 O12         0.4060    3.6820   -3.0940 o         1 MOL     -0.534876
     66 H26         1.9840    3.5330   -1.5010 hn        1 MOL      0.286099
     67 H27         0.4920    5.4200   -0.5250 h1        1 MOL      0.090604
     68 H28        -0.5100    3.8530   -0.3040 h1        1 MOL      0.090604
     69 N8         -1.2210    5.1770   -2.6050 n         1 MOL     -0.464377
     70 C22        -1.9410    6.0080   -1.6640 c3        1 MOL     -0.156915
     71 C23        -2.9030    5.2340   -0.6960 c         1 MOL      0.300785
     72 O13        -3.2880    5.7530    0.3780 o         1 MOL     -0.509060
     73 C24        -2.8560    6.9870   -2.3270 c3        1 MOL      0.379306
     74 C25        -1.8840    7.9310   -3.1750 c3        1 MOL     -0.551450
     75 O14        -3.7840    6.4650   -3.2500 oh        1 MOL     -0.580436
     76 H29        -1.5440    5.0320   -3.5480 hn        1 MOL      0.320552
     77 H30        -1.2130    6.4990   -1.0260 h1        1 MOL      0.123721
     78 H31        -3.4510    7.5050   -1.5710 h1        1 MOL      0.024967
     79 H32        -4.3190    7.1790   -3.6020 ho        1 MOL      0.394860
     80 H33        -1.5260    7.4140   -4.0620 hc        1 MOL      0.132012
     81 H34        -2.4190    8.7950   -3.5770 hc        1 MOL      0.132012
     82 H35        -1.0710    8.3190   -2.5590 hc        1 MOL      0.132012
     83 N9         -3.0490    3.9550   -1.0200 n         1 MOL      0.047828
     84 C26        -3.8110    3.0680   -0.1590 c3        1 MOL     -0.028170
     85 C27        -2.9980    1.7910    0.2310 c         1 MOL      0.243188
     86 O15        -2.1080    1.3510   -0.4530 o         1 MOL     -0.448882
     87 C28        -5.1980    2.7300   -0.8540 c3        1 MOL      0.149862
     88 C29        -5.0540    1.8280   -2.1660 c3        1 MOL      0.307529
     89 C30        -6.0300    4.0540   -1.0920 c3        1 MOL     -0.299935
     90 C31        -6.4300    1.1760   -2.4710 c3        1 MOL      0.216882
     91 H36        -2.7910    3.5970   -1.9320 hn        1 MOL      0.157768
     92 H37        -3.9800    3.4990    0.8220 h1        1 MOL      0.086307
     93 H38        -5.7890    2.2180   -0.0870 hc        1 MOL     -0.030048
     94 H39        -4.2630    1.0910   -2.0710 hc        1 MOL     -0.092752
     95 H40        -4.8150    2.5270   -2.9630 hc        1 MOL     -0.092752
     96 H41        -5.5420    4.6980   -1.8260 hc        1 MOL      0.049865
     97 H42        -7.0630    3.7740   -1.2820 hc        1 MOL      0.049865
     98 H43        -6.0170    4.5930   -0.1420 hc        1 MOL      0.049865
     99 H44        -7.0370    1.9390   -2.9630 hc        1 MOL     -0.089215
    100 H45        -6.2570    0.3830   -3.1970 hc        1 MOL     -0.089215
    101 H46        -6.9020    0.8240   -1.5500 hc        1 MOL     -0.089215
    102 N10        -3.3020    1.0560    1.3210 n         1 MOL     -0.186094
    103 C32        -4.4960    1.0920    2.2100 c3        1 MOL      0.463306
    104 C33        -5.6980    0.1600    1.7260 c         1 MOL      0.514956
    105 O16        -5.5150   -0.7140    0.8960 o         1 MOL     -0.624726
    106 C34        -4.1140    0.7210    3.6670 c3        1 MOL     -0.549430
    107 C35        -2.9920    1.6400    4.3040 c         1 MOL      0.807975
    108 O17        -2.5770    2.6180    3.7480 o         1 MOL     -0.740771
    109 O18        -2.4550    1.2540    5.3620 o         1 MOL     -0.740771
    110 H47        -2.8010    0.1900    1.2890 hn        1 MOL      0.215290
    111 H48        -4.8730    2.1200    2.1740 h1        1 MOL     -0.058992
    112 H49        -3.8670   -0.3290    3.7510 hc        1 MOL      0.075992
    113 H50        -5.0350    0.8910    4.2250 hc        1 MOL      0.075992
    114 N11        -6.9240    0.5510    2.0500 n         1 MOL     -0.575058
    115 C36        -8.1770   -0.1790    1.8340 c3        1 MOL      0.445527
    116 C37        -8.8680    0.1050    0.4440 c         1 MOL      0.024547
    117 O19        -8.9160    1.3050    0.0920 o         1 MOL     -0.426948
    118 C38        -9.1050    0.1290    2.9720 c3        1 MOL     -0.283513
    119 C39       -10.2340   -0.8680    3.1510 ca        1 MOL      0.232860
    120 C40       -11.4450   -0.6150    2.4820 ca        1 MOL     -0.301578
    121 C41       -10.0670   -2.0780    3.9040 ca        1 MOL     -0.301578
    122 C42       -12.4860   -1.5840    2.5510 ca        1 MOL     -0.038382
    123 C43       -11.1540   -2.9600    4.0660 ca        1 MOL     -0.038382
    124 C44       -12.3690   -2.6910    3.4650 ca        1 MOL     -0.173243
    125 H51        -6.9690    1.3650    2.6540 hn        1 MOL      0.291357
    126 H52        -7.8710   -1.2260    1.8520 h1        1 MOL      0.028620
    127 H53        -9.4280    1.1700    2.9790 hc        1 MOL      0.077171
    128 H54        -8.4380    0.0260    3.8300 hc        1 MOL      0.077171
    129 H55       -11.4780    0.2650    1.8650 ha        1 MOL      0.172940
    130 H56        -9.1660   -2.4050    4.4220 ha        1 MOL      0.172940
    131 H57       -13.4220   -1.4610    2.0160 ha        1 MOL      0.099779
    132 H58       -11.0510   -3.8470    4.6640 ha        1 MOL      0.099779
    133 H59       -13.2400   -3.3270    3.5240 ha        1 MOL      0.100953
    134 N12        -9.5250   -0.9140   -0.2030 n         1 MOL      0.101520
    135 C45        -9.7240   -2.3510    0.1140 c3        1 MOL      0.012434
    136 C46        -8.4440   -3.1330   -0.1000 c         1 MOL      0.452195
    137 O20        -8.2020   -4.0910    0.6590 o         1 MOL     -0.576180
    138 C47       -10.7800   -2.9150   -0.7980 c3        1 MOL     -0.169063
    139 C48       -10.6110   -2.0020   -2.0350 c3        1 MOL      0.123808
    140 C49       -10.3170   -0.6370   -1.4120 c3        1 MOL      0.058190
    141 H60       -10.1100   -2.4870    1.1260 h1        1 MOL      0.054234
    142 H61       -10.5520   -3.9340   -1.1130 hc        1 MOL      0.053760
    143 H62       -11.7950   -2.7920   -0.4270 hc        1 MOL      0.053760
    144 H63        -9.7540   -2.2470   -2.6580 hc        1 MOL     -0.034290
    145 H64       -11.5350   -1.9460   -2.6190 hc        1 MOL     -0.034290
    146 H65        -9.7690    0.0370   -2.0690 h1        1 MOL     -0.005481
    147 H66       -11.2330   -0.1600   -1.0500 h1        1 MOL     -0.005481
    148 N13        -7.5290   -2.7800   -1.0560 n         1 MOL     -0.122156
    149 C50        -6.3920   -3.5600   -1.4970 c3        1 MOL      0.025739
    150 C51        -6.7660   -4.8260   -2.2790 c         1 MOL      0.415539
    151 O21        -7.4290   -4.6790   -3.3480 o         1 MOL     -0.574938
    152 C52        -5.4300   -2.6020   -2.2230 c3        1 MOL     -0.030170
    153 C53        -4.0910   -3.3040   -2.6020 c3        1 MOL     -0.105778
    154 C54        -3.2970   -2.3310   -3.4730 c         1 MOL      0.664816
    155 O22        -2.2810   -1.8530   -2.9090 o         1 MOL     -0.729611
    156 O23        -3.7330   -1.9890   -4.6490 o         1 MOL     -0.729611
    157 H67        -7.7200   -1.8300   -1.3540 hn        1 MOL      0.154196
    158 H68        -5.8220   -3.8640   -0.6090 h1        1 MOL      0.066272
    159 H69        -5.1370   -1.7690   -1.5820 hc        1 MOL      0.065172
    160 H70        -5.8730   -2.1350   -3.1060 hc        1 MOL      0.065172
    161 H71        -4.2110   -4.2390   -3.1400 hc        1 MOL     -0.003392
    162 H72        -3.4750   -3.6460   -1.7650 hc        1 MOL     -0.003392
    163 N14        -6.6630   -6.0840   -1.8270 n         1 MOL     -0.282370
    164 C55        -6.2270   -6.5630   -0.5140 c3        1 MOL     -0.263190
    165 H73        -7.0780   -6.5780    0.1680 h1        1 MOL      0.113286
    166 H74        -5.8220   -7.5710   -0.6100 h1        1 MOL      0.113286
    167 H75        -5.4590   -5.8980   -0.1200 h1        1 MOL      0.113286
    168 H76        -7.0310   -6.7980   -2.4350 hn        1 MOL      0.255983
    169 Ca1         7.0680   -0.0740   -0.7370 Ca        1 MOL      1.637253
    170 O24         8.7190    0.1110   -2.9000 oh        1 MOL     -0.879522
    171 H77         9.6510    0.0010   -2.7630 ho        1 MOL      0.431243
    172 H78         8.6450    0.6110   -3.7080 ho        1 MOL      0.431243
    173 O25         5.9250    1.4760   -2.5130 oh        1 MOL     -0.879522
    174 H79         5.1060    1.8640   -2.8270 ho        1 MOL      0.431243
    175 H80         6.5850    1.8060   -3.1160 ho        1 MOL      0.431243
    176 O26         6.7250   -1.9840   -2.6090 oh        1 MOL     -0.879522
    177 H81         5.8860   -1.8380   -3.0560 ho        1 MOL      0.431243
    178 H82         7.3800   -1.8750   -3.2920 ho        1 MOL      0.431243
@<TRIPOS>BOND
     1    1    2 1   
     2    1    4 1   
     3    1    5 1   
     4    1    6 1   
     5    2    3 2   
     6    2    7 1   
     7    7    8 1   
     8    7   15 1   
     9    8    9 1   
    10    8   11 1   
    11    8   16 1   
    12    9   10 2   
    13    9   19 1   
    14   11   12 1   
    15   11   17 1   
    16   11   18 1   
    17   12   13 1   
    18   12   14 1   
    19   19   20 1   
    20   19   24 1   
    21   20   21 1   
    22   20   23 1   
    23   20   25 1   
    24   21   22 2   
    25   21   29 1   
    26   23   26 1   
    27   23   27 1   
    28   23   28 1   
    29   29   30 1   
    30   29   37 1   
    31   30   31 1   
    32   30   33 1   
    33   30   38 1   
    34   31   32 2   
    35   31   41 1   
    36   33   34 1   
    37   33   39 1   
    38   33   40 1   
    39   34   35 1   
    40   34   36 1   
    41   41   42 1   
    42   41   45 1   
    43   42   43 1   
    44   42   46 1   
    45   42   47 1   
    46   43   44 2   
    47   43   48 1   
    48   48   49 1   
    49   48   56 1   
    50   49   50 1   
    51   49   52 1   
    52   49   57 1   
    53   50   51 2   
    54   50   62 1   
    55   52   53 1   
    56   52   58 1   
    57   52   59 1   
    58   53   54 1   
    59   53   55 2   
    60   54   60 1   
    61   54   61 1   
    62   62   63 1   
    63   62   66 1   
    64   63   64 1   
    65   63   67 1   
    66   63   68 1   
    67   64   65 2   
    68   64   69 1   
    69   69   70 1   
    70   69   76 1   
    71   70   71 1   
    72   70   73 1   
    73   70   77 1   
    74   71   72 2   
    75   71   83 1   
    76   73   74 1   
    77   73   75 1   
    78   73   78 1   
    79   74   80 1   
    80   74   81 1   
    81   74   82 1   
    82   75   79 1   
    83   83   84 1   
    84   83   91 1   
    85   84   85 1   
    86   84   87 1   
    87   84   92 1   
    88   85   86 2   
    89   85  102 1   
    90   87   88 1   
    91   87   89 1   
    92   87   93 1   
    93   88   90 1   
    94   88   94 1   
    95   88   95 1   
    96   89   96 1   
    97   89   97 1   
    98   89   98 1   
    99   90   99 1   
   100   90  100 1   
   101   90  101 1   
   102  102  103 1   
   103  102  110 1   
   104  103  104 1   
   105  103  106 1   
   106  103  111 1   
   107  104  105 2   
   108  104  114 1   
   109  106  107 1   
   110  106  112 1   
   111  106  113 1   
   112  107  108 1   
   113  107  109 1   
   114  114  115 1   
   115  114  125 1   
   116  115  116 1   
   117  115  118 1   
   118  115  126 1   
   119  116  117 2   
   120  116  134 1   
   121  118  119 1   
   122  118  127 1   
   123  118  128 1   
   124  119  120 ar  
   125  119  121 ar  
   126  120  122 ar  
   127  120  129 1   
   128  121  123 ar  
   129  121  130 1   
   130  122  124 ar  
   131  122  131 1   
   132  123  124 ar  
   133  123  132 1   
   134  124  133 1   
   135  134  135 1   
   136  134  140 1   
   137  135  136 1   
   138  135  138 1   
   139  135  141 1   
   140  136  137 2   
   141  136  148 1   
   142  138  139 1   
   143  138  142 1   
   144  138  143 1   
   145  139  140 1   
   146  139  144 1   
   147  139  145 1   
   148  140  146 1   
   149  140  147 1   
   150  148  149 1   
   151  148  157 1   
   152  149  150 1   
   153  149  152 1   
   154  149  158 1   
   155  150  151 2   
   156  150  163 1   
   157  152  153 1   
   158  152  159 1   
   159  152  160 1   
   160  153  154 1   
   161  153  161 1   
   162  153  162 1   
   163  154  155 1   
   164  154  156 1   
   165  163  164 1   
   166  163  168 1   
   167  164  165 1   
   168  164  166 1   
   169  164  167 1   
   170  170  171 1   
   171  170  172 1   
   172  173  174 1   
   173  173  175 1   
   174  176  177 1   
   175  176  178 1   
@<TRIPOS>SUBSTRUCTURE
     1 MOL         1 TEMP              0 ****  ****    0 ROOT
