@<TRIPOS>MOLECULE
MOL
  185   180     1     0     0
SMALL
resp


@<TRIPOS>ATOM
      1 C1         -6.5040    0.9570   -4.9980 c3        1 MOL     -0.411335
      2 C2         -5.6080    0.7250   -3.7050 c         1 MOL      0.634400
      3 O1         -4.4070    0.5640   -3.9500 o         1 MOL     -0.588229
      4 H1         -6.3710    1.9790   -5.3530 hc        1 MOL      0.103465
      5 H2         -6.2040    0.2590   -5.7790 hc        1 MOL      0.103465
      6 H3         -7.5520    0.7940   -4.7480 hc        1 MOL      0.103465
      7 N1         -6.1090    0.6270   -2.4690 n         1 MOL     -0.355472
      8 C3         -5.2330    0.4900   -1.3520 c3        1 MOL     -0.072085
      9 C4         -4.7910   -1.0190   -1.1180 c         1 MOL      0.350141
     10 O2         -3.6850   -1.1900   -0.5350 o         1 MOL     -0.461852
     11 C5         -5.9670    1.0460   -0.0900 c3        1 MOL      0.012259
     12 C6         -7.3910    0.7300    0.2180 c         1 MOL      0.636207
     13 O3         -7.9500   -0.1820   -0.4650 o         1 MOL     -0.670460
     14 O4         -8.0380    1.3630    1.0710 o         1 MOL     -0.670460
     15 H4         -7.0950    0.7860   -2.3100 hn        1 MOL      0.234541
     16 H5         -4.3060    1.0560   -1.4190 h1        1 MOL      0.065603
     17 H6         -5.9540    2.1210   -0.2640 hc        1 MOL      0.030042
     18 H7         -5.3510    0.7240    0.7500 hc        1 MOL      0.030042
     19 N2         -5.6130   -2.0300   -1.5150 n         1 MOL     -0.120539
     20 C7         -5.2010   -3.4000   -1.6920 c3        1 MOL     -0.080001
     21 C8         -4.8760   -3.9850   -0.3250 c         1 MOL      0.504726
     22 O5         -5.7660   -4.2960    0.4660 o         1 MOL     -0.496673
     23 C9         -6.3670   -4.1610   -2.3540 c3        1 MOL     -0.111024
     24 C10        -6.3090   -4.1510   -3.8960 c3        1 MOL      0.060957
     25 C11        -7.5970   -4.7410   -4.5410 c3        1 MOL     -0.169137
     26 C12        -8.8270   -3.8130   -4.3070 c3        1 MOL      0.193731
     27 N3        -10.1430   -4.3070   -4.7350 n4        1 MOL     -0.536075
     28 H8         -6.5550   -1.8680   -1.8590 hn        1 MOL      0.123865
     29 H9         -4.2500   -3.4590   -2.2110 h1        1 MOL      0.080930
     30 H10        -7.2650   -3.7100   -1.9280 hc        1 MOL      0.081678
     31 H11        -6.4400   -5.1710   -1.9300 hc        1 MOL      0.081678
     32 H12        -5.4410   -4.7240   -4.2320 hc        1 MOL      0.024880
     33 H13        -6.2650   -3.1240   -4.2630 hc        1 MOL      0.024880
     34 H14        -7.7950   -5.7350   -4.1520 hc        1 MOL      0.060683
     35 H15        -7.4640   -4.8510   -5.6170 hc        1 MOL      0.060683
     36 H16        -8.7570   -2.8060   -4.7160 hx        1 MOL      0.050741
     37 H17        -8.8870   -3.7000   -3.2310 hx        1 MOL      0.050741
     38 H18       -10.2830   -5.2290   -4.3590 hn        1 MOL      0.368213
     39 H19       -10.8540   -3.6800   -4.3830 hn        1 MOL      0.368213
     40 H20       -10.1980   -4.3050   -5.7510 hn        1 MOL      0.368213
     41 N4         -3.5520   -4.1410    0.0010 n         1 MOL     -0.422440
     42 C13        -2.9740   -4.6850    1.2450 c3        1 MOL      0.057846
     43 C14        -3.3520   -3.7690    2.4840 c         1 MOL      0.436863
     44 O6         -3.3640   -4.2630    3.6250 o         1 MOL     -0.547446
     45 C15        -1.3680   -4.7070    1.2010 c3        1 MOL     -0.357085
     46 C16        -0.7380   -3.3820    0.8690 c         1 MOL      0.830666
     47 O7         -0.3290   -2.6730    1.7800 o         1 MOL     -0.754343
     48 O8         -0.6590   -2.9690   -0.3330 o         1 MOL     -0.754343
     49 H21        -2.9370   -3.6830   -0.6450 hn        1 MOL      0.236925
     50 H22        -3.3660   -5.6780    1.4760 h1        1 MOL      0.100730
     51 H23        -1.1010   -5.3540    0.3640 hc        1 MOL      0.111866
     52 H24        -0.9920   -5.0960    2.1530 hc        1 MOL      0.111866
     53 N5         -3.6770   -2.4860    2.2580 n         1 MOL     -0.248974
     54 C17        -4.2030   -1.5350    3.3090 c3        1 MOL      0.236079
     55 C18        -5.6590   -1.1010    3.3020 c         1 MOL      0.448685
     56 O9         -6.4820   -1.9190    2.8520 o         1 MOL     -0.505705
     57 H25        -3.6210   -2.2460    1.2830 hn        1 MOL      0.213435
     58 H26        -3.5710   -0.6520    3.1890 h1        1 MOL     -0.013140
     59 H27        -3.9250   -1.8660    4.3050 h1        1 MOL     -0.013140
     60 N6         -6.0990    0.1440    3.6630 n         1 MOL     -0.520805
     61 C19        -5.1860    1.3210    4.0050 c3        1 MOL      0.235148
     62 C20        -5.5740    2.4710    3.1010 c         1 MOL      0.527946
     63 O10        -6.6430    3.0090    3.3080 o         1 MOL     -0.512080
     64 C21        -5.3490    1.5130    5.5290 c3        1 MOL     -0.431676
     65 C22        -4.4740    2.6110    6.0760 c         1 MOL      0.693702
     66 N7         -4.3270    2.7570    7.3620 n         1 MOL     -0.794083
     67 O11        -4.0350    3.5010    5.3610 o         1 MOL     -0.534843
     68 H28        -7.0980    0.2650    3.5860 hn        1 MOL      0.357226
     69 H29        -4.1300    1.1280    3.8080 h1        1 MOL      0.012512
     70 H30        -5.3140    0.5650    6.0630 hc        1 MOL      0.130956
     71 H31        -6.3690    1.8600    5.6940 hc        1 MOL      0.130956
     72 H32        -4.8110    2.1030    7.9590 hn        1 MOL      0.364722
     73 H33        -3.7590    3.4880    7.7650 hn        1 MOL      0.364722
     74 N8         -4.7560    2.9340    2.1720 n         1 MOL     -0.457272
     75 C23        -3.3810    2.5030    2.0040 c3        1 MOL      0.175933
     76 C24        -2.6340    3.2410    0.8780 c         1 MOL      0.713562
     77 O12        -3.2720    4.0160    0.2050 o         1 MOL     -0.544044
     78 H34        -5.0500    3.7620    1.6650 hn        1 MOL      0.285949
     79 H35        -3.4670    1.4770    1.6480 h1        1 MOL     -0.065134
     80 H36        -2.7840    2.6390    2.9090 h1        1 MOL     -0.065134
     81 N9         -1.3120    3.1100    0.7700 n         1 MOL     -0.706769
     82 C25        -0.3950    3.6870   -0.2600 c3        1 MOL      0.269343
     83 C26         0.8080    2.8100   -0.7160 c         1 MOL      0.578827
     84 O13         1.0950    1.7990   -0.0900 o         1 MOL     -0.543363
     85 C27         0.0700    5.0330    0.2370 c3        1 MOL     -0.229038
     86 C28         0.6120    6.0580   -0.7120 ca        1 MOL      0.109160
     87 C29         1.6310    6.9000   -0.2740 ca        1 MOL     -0.177870
     88 C30        -0.0630    6.3050   -1.9270 ca        1 MOL     -0.177870
     89 C31         2.0270    7.8810   -1.1620 ca        1 MOL     -0.209919
     90 C32         0.3910    7.2330   -2.8070 ca        1 MOL     -0.209919
     91 C33         1.3960    8.1070   -2.3950 ca        1 MOL      0.287964
     92 O14         1.7840    9.0570   -3.2900 oh        1 MOL     -0.480839
     93 H37        -0.9470    2.4350    1.4270 hn        1 MOL      0.316908
     94 H38        -1.0220    3.8290   -1.1350 h1        1 MOL     -0.000078
     95 H39         0.8430    4.8630    0.9870 hc        1 MOL      0.096007
     96 H40        -0.7510    5.5460    0.7460 hc        1 MOL      0.096007
     97 H41         2.1080    6.7610    0.6910 ha        1 MOL      0.147165
     98 H42        -0.9530    5.7840   -2.2470 ha        1 MOL      0.147165
     99 H43         2.8530    8.5220   -0.8900 ha        1 MOL      0.141080
    100 H44        -0.1840    7.3970   -3.7050 ha        1 MOL      0.141080
    101 H45         1.2150    9.0500   -4.0650 ho        1 MOL      0.363140
    102 N10         1.5320    3.2470   -1.7760 n         1 MOL     -0.572694
    103 C34         2.7350    2.6260   -2.3670 c3        1 MOL      0.133078
    104 C35         4.0150    2.6030   -1.4130 c         1 MOL      0.540925
    105 O15         4.5970    3.6730   -1.2010 o         1 MOL     -0.577784
    106 C36         3.0430    3.1590   -3.7700 c3        1 MOL     -0.048100
    107 C37         4.1820    2.4200   -4.4670 c3        1 MOL     -0.177085
    108 C38         1.7700    3.0110   -4.6010 c3        1 MOL     -0.121587
    109 C39         4.0030    0.9180   -4.6930 c3        1 MOL     -0.309743
    110 H46         1.3690    4.1990   -2.0770 hn        1 MOL      0.301720
    111 H47         2.3720    1.6030   -2.5100 h1        1 MOL      0.069578
    112 H48         3.2570    4.2330   -3.7180 hc        1 MOL      0.054293
    113 H49         5.1420    2.5140   -3.9570 hc        1 MOL      0.106194
    114 H50         4.3380    2.8250   -5.4670 hc        1 MOL      0.106194
    115 H51         1.3700    2.0120   -4.4760 hc        1 MOL      0.040376
    116 H52         0.9780    3.7190   -4.3360 hc        1 MOL      0.040376
    117 H53         1.9820    3.1470   -5.6620 hc        1 MOL      0.040376
    118 H54         3.8200    0.3570   -3.7770 hc        1 MOL      0.086191
    119 H55         3.1950    0.7240   -5.3840 hc        1 MOL      0.086191
    120 H56         4.8790    0.5200   -5.2220 hc        1 MOL      0.086191
    121 N11         4.4430    1.5020   -0.8510 n         1 MOL     -0.458882
    122 C40         5.5450    1.4780    0.1150 c3        1 MOL      0.344531
    123 C41         5.5180    0.4810    1.3080 c         1 MOL      0.172211
    124 O16         5.0970   -0.7180    1.2470 o         1 MOL     -0.249372
    125 C42         6.8350    1.1360   -0.7310 c3        1 MOL      0.115207
    126 O17         7.9850    1.1140    0.0700 oh        1 MOL     -0.608566
    127 H57         3.8610    0.6990   -1.0660 hn        1 MOL      0.254921
    128 H58         5.7320    2.4700    0.5340 h1        1 MOL      0.047497
    129 H59         6.9590    1.9270   -1.4760 h1        1 MOL      0.011651
    130 H60         6.7950    0.1200   -1.1060 h1        1 MOL      0.011651
    131 H61         8.7020    0.8290   -0.5040 ho        1 MOL      0.409127
    132 N12         6.1090    0.9030    2.4830 n         1 MOL     -0.450333
    133 C43         6.5840    0.0350    3.5190 c3        1 MOL      0.132049
    134 C44         7.6350   -1.0460    3.1600 c         1 MOL      0.455771
    135 O18         7.6760   -2.1800    3.6460 o         1 MOL     -0.472885
    136 C45         5.3210   -0.4490    4.2920 c3        1 MOL     -0.237662
    137 H62         6.4640    1.8450    2.5440 hn        1 MOL      0.316435
    138 H63         7.0860    0.6530    4.2550 h1        1 MOL      0.081840
    139 H64         4.5410    0.2900    4.4410 hc        1 MOL      0.069727
    140 H65         4.8600   -1.3010    3.7990 hc        1 MOL      0.069727
    141 H66         5.6020   -0.7310    5.3130 hc        1 MOL      0.069727
    142 N13         8.4790   -0.6990    2.1480 n         1 MOL     -0.521636
    143 C46         9.4060   -1.5500    1.3480 c3        1 MOL      0.329599
    144 C47         8.7970   -2.8580    0.8540 c         1 MOL      0.411449
    145 O19         9.4860   -3.8140    0.6130 o         1 MOL     -0.508174
    146 C48        10.6520   -1.8650    2.2290 c3        1 MOL     -0.475510
    147 H67         8.4570    0.2800    1.8850 hn        1 MOL      0.258264
    148 H68         9.7120   -1.0700    0.4180 h1        1 MOL     -0.004369
    149 H69        10.2330   -2.2220    3.1690 hc        1 MOL      0.130269
    150 H70        11.3450   -2.5310    1.7060 hc        1 MOL      0.130269
    151 H71        11.2210   -0.9440    2.3240 hc        1 MOL      0.130269
    152 N14         7.5100   -2.6880    0.4070 n         1 MOL     -0.011476
    153 C49         6.9600   -3.9040   -0.2200 c3        1 MOL     -0.259002
    154 C50         7.4230   -4.1180   -1.6720 c         1 MOL      0.541709
    155 O20         7.0140   -5.1530   -2.2560 o         1 MOL     -0.517650
    156 C51         5.3920   -3.7610   -0.1240 c3        1 MOL      0.057006
    157 C52         4.7720   -2.7330   -1.0910 c3        1 MOL     -0.218327
    158 C53         3.3380   -2.1840   -0.8900 c         1 MOL      0.770008
    159 O21         3.0680   -1.0300   -1.1580 o         1 MOL     -0.747567
    160 O22         2.5030   -2.8090   -0.1980 o         1 MOL     -0.747567
    161 H72         6.9750   -1.8610    0.5860 hn        1 MOL      0.056256
    162 H73         7.3200   -4.8100    0.2630 h1        1 MOL      0.160717
    163 H74         5.0450   -3.5960    0.8950 hc        1 MOL      0.036266
    164 H75         5.0040   -4.7510   -0.3820 hc        1 MOL      0.036266
    165 H76         4.8250   -3.2110   -2.0670 hc        1 MOL      0.033386
    166 H77         5.4260   -1.8530   -1.0330 hc        1 MOL      0.033386
    167 N15         8.1740   -3.1770   -2.3080 n         1 MOL     -0.370721
    168 C54         8.9600   -3.4900   -3.5600 c3        1 MOL     -0.142123
    169 H78         8.7520   -4.5130   -3.8720 h1        1 MOL      0.093872
    170 H79         8.6700   -2.8010   -4.3530 h1        1 MOL      0.093872
    171 H80        10.0250   -3.3830   -3.3570 h1        1 MOL      0.093872
    172 H81         8.3890   -2.3520   -1.7680 hn        1 MOL      0.243258
    173 Ca1         0.7930   -0.8660    0.2450 Ca        1 MOL      1.714760
    174 O23         0.5980   -0.9420   -2.4970 oh        1 MOL     -0.842109
    175 H82         0.1290   -0.7220   -3.3070 ho        1 MOL      0.413607
    176 H83         1.3530   -1.4470   -2.7900 ho        1 MOL      0.413607
    177 O24        -0.3560    0.1300    2.5350 oh        1 MOL     -0.842109
    178 H84        -0.2950    1.0190    2.8910 ho        1 MOL      0.413607
    179 H85        -0.8700   -0.3610    3.1710 ho        1 MOL      0.413607
    180 O25         2.5070   -0.3330    2.1970 oh        1 MOL     -0.842109
    181 H86         2.4070   -0.0590    3.1120 ho        1 MOL      0.413607
    182 H87         3.3390   -0.8070    2.1790 ho        1 MOL      0.413607
    183 O26        -1.4210    0.1950   -0.6730 oh        1 MOL     -0.842109
    184 H88        -1.3240    0.6090   -1.5360 ho        1 MOL      0.413607
    185 H89        -2.3140   -0.1670   -0.6940 ho        1 MOL      0.413607
@<TRIPOS>BOND
     1    1    2 1   
     2    1    4 1   
     3    1    5 1   
     4    1    6 1   
     5    2    3 2   
     6    2    7 1   
     7    7    8 1   
     8    7   15 1   
     9    8    9 1   
    10    8   11 1   
    11    8   16 1   
    12    9   10 2   
    13    9   19 1   
    14   11   12 1   
    15   11   17 1   
    16   11   18 1   
    17   12   13 1   
    18   12   14 1   
    19   19   20 1   
    20   19   28 1   
    21   20   21 1   
    22   20   23 1   
    23   20   29 1   
    24   21   22 2   
    25   21   41 1   
    26   23   24 1   
    27   23   30 1   
    28   23   31 1   
    29   24   25 1   
    30   24   32 1   
    31   24   33 1   
    32   25   26 1   
    33   25   34 1   
    34   25   35 1   
    35   26   27 1   
    36   26   36 1   
    37   26   37 1   
    38   27   38 1   
    39   27   39 1   
    40   27   40 1   
    41   41   42 1   
    42   41   49 1   
    43   42   43 1   
    44   42   45 1   
    45   42   50 1   
    46   43   44 2   
    47   43   53 1   
    48   45   46 1   
    49   45   51 1   
    50   45   52 1   
    51   46   47 1   
    52   46   48 1   
    53   53   54 1   
    54   53   57 1   
    55   54   55 1   
    56   54   58 1   
    57   54   59 1   
    58   55   56 2   
    59   55   60 1   
    60   60   61 1   
    61   60   68 1   
    62   61   62 1   
    63   61   64 1   
    64   61   69 1   
    65   62   63 2   
    66   62   74 1   
    67   64   65 1   
    68   64   70 1   
    69   64   71 1   
    70   65   66 1   
    71   65   67 2   
    72   66   72 1   
    73   66   73 1   
    74   74   75 1   
    75   74   78 1   
    76   75   76 1   
    77   75   79 1   
    78   75   80 1   
    79   76   77 2   
    80   76   81 1   
    81   81   82 1   
    82   81   93 1   
    83   82   83 1   
    84   82   85 1   
    85   82   94 1   
    86   83   84 2   
    87   83  102 1   
    88   85   86 1   
    89   85   95 1   
    90   85   96 1   
    91   86   87 ar  
    92   86   88 ar  
    93   87   89 ar  
    94   87   97 1   
    95   88   90 ar  
    96   88   98 1   
    97   89   91 ar  
    98   89   99 1   
    99   90   91 ar  
   100   90  100 1   
   101   91   92 1   
   102   92  101 1   
   103  102  103 1   
   104  102  110 1   
   105  103  104 1   
   106  103  106 1   
   107  103  111 1   
   108  104  105 2   
   109  104  121 1   
   110  106  107 1   
   111  106  108 1   
   112  106  112 1   
   113  107  109 1   
   114  107  113 1   
   115  107  114 1   
   116  108  115 1   
   117  108  116 1   
   118  108  117 1   
   119  109  118 1   
   120  109  119 1   
   121  109  120 1   
   122  121  122 1   
   123  121  127 1   
   124  122  123 1   
   125  122  125 1   
   126  122  128 1   
   127  123  124 2   
   128  123  132 1   
   129  125  126 1   
   130  125  129 1   
   131  125  130 1   
   132  126  131 1   
   133  132  133 1   
   134  132  137 1   
   135  133  134 1   
   136  133  136 1   
   137  133  138 1   
   138  134  135 2   
   139  134  142 1   
   140  136  139 1   
   141  136  140 1   
   142  136  141 1   
   143  142  143 1   
   144  142  147 1   
   145  143  144 1   
   146  143  146 1   
   147  143  148 1   
   148  144  145 2   
   149  144  152 1   
   150  146  149 1   
   151  146  150 1   
   152  146  151 1   
   153  152  153 1   
   154  152  161 1   
   155  153  154 1   
   156  153  156 1   
   157  153  162 1   
   158  154  155 2   
   159  154  167 1   
   160  156  157 1   
   161  156  163 1   
   162  156  164 1   
   163  157  158 1   
   164  157  165 1   
   165  157  166 1   
   166  158  159 1   
   167  158  160 1   
   168  167  168 1   
   169  167  172 1   
   170  168  169 1   
   171  168  170 1   
   172  168  171 1   
   173  174  175 1   
   174  174  176 1   
   175  177  178 1   
   176  177  179 1   
   177  180  181 1   
   178  180  182 1   
   179  183  184 1   
   180  183  185 1   
@<TRIPOS>SUBSTRUCTURE
     1 MOL         1 TEMP              0 ****  ****    0 ROOT
