@<TRIPOS>MOLECULE
MOL
  181   177     1     0     0
SMALL
resp


@<TRIPOS>ATOM
      1 C1        -12.0090    5.7940   -0.1970 c3        1 MOL     -0.505854
      2 C2        -11.5410    4.7010   -1.1840 c         1 MOL      0.762063
      3 O1        -11.3150    4.9110   -2.3990 o         1 MOL     -0.627476
      4 H1        -12.9980    5.5390    0.1830 hc        1 MOL      0.129819
      5 H2        -11.3060    5.8590    0.6340 hc        1 MOL      0.129819
      6 H3        -12.0530    6.7540   -0.7110 hc        1 MOL      0.129819
      7 N1        -11.4200    3.4800   -0.7300 n         1 MOL     -0.633742
      8 C3        -11.5950    2.8660    0.5890 c3        1 MOL      0.252896
      9 C4        -12.0400    1.4130    0.5550 c         1 MOL      0.433748
     10 O2        -12.6180    1.0420    1.6110 o         1 MOL     -0.562874
     11 C5        -10.2930    2.9740    1.3900 c3        1 MOL     -0.289828
     12 C6         -9.0480    2.3680    0.7650 c         1 MOL      0.845325
     13 O3         -9.1790    1.6770   -0.2600 o         1 MOL     -0.731061
     14 O4         -7.8980    2.4860    1.3450 o         1 MOL     -0.731061
     15 H4        -11.0600    2.8660   -1.4580 hn        1 MOL      0.277640
     16 H5        -12.2810    3.5080    1.1350 h1        1 MOL      0.044231
     17 H6        -10.4110    2.5940    2.4030 hc        1 MOL      0.068264
     18 H7        -10.2050    4.0600    1.4890 hc        1 MOL      0.068264
     19 N2        -11.8840    0.6840   -0.5500 n         1 MOL     -0.560273
     20 C7        -12.3780   -0.7240   -0.5880 c3        1 MOL      0.486411
     21 C8        -11.3210   -1.8160   -0.2850 c         1 MOL      0.186227
     22 O5        -11.6400   -2.9930   -0.3820 o         1 MOL     -0.517246
     23 C9        -12.9920   -0.9670   -1.9390 c3        1 MOL     -0.305941
     24 H8        -11.2450    1.0180   -1.2560 hn        1 MOL      0.366306
     25 H9        -13.1880   -0.8290    0.1320 h1        1 MOL      0.014243
     26 H10       -13.5910   -0.0890   -2.2160 hc        1 MOL      0.073401
     27 H11       -12.1180   -1.0560   -2.5850 hc        1 MOL      0.073401
     28 H12       -13.6320   -1.8490   -1.9210 hc        1 MOL      0.073401
     29 N3        -10.0900   -1.5150    0.0470 n         1 MOL      0.026537
     30 C10        -9.1050   -2.4720    0.4100 c3        1 MOL     -0.187434
     31 C11        -8.1730   -1.8040    1.4110 c         1 MOL      0.553600
     32 O6         -7.9520   -0.6110    1.3590 o         1 MOL     -0.544585
     33 C12        -8.3680   -2.8970   -0.9010 c3        1 MOL      0.022831
     34 C13        -7.9200   -1.7220   -1.7790 c         1 MOL      0.627686
     35 O7         -6.8560   -1.1500   -1.4370 o         1 MOL     -0.675581
     36 O8         -8.6400   -1.4070   -2.7540 o         1 MOL     -0.675581
     37 H13        -9.7380   -0.5780   -0.0340 hn        1 MOL      0.104416
     38 H14        -9.4540   -3.3410    0.9540 h1        1 MOL      0.076398
     39 H15        -9.0960   -3.4530   -1.4870 hc        1 MOL     -0.006000
     40 H16        -7.5010   -3.4910   -0.6070 hc        1 MOL     -0.006000
     41 N4         -7.4980   -2.6280    2.1880 n         1 MOL     -0.403073
     42 C14        -6.3310   -2.3180    2.9890 c3        1 MOL     -0.320480
     43 C15        -5.1850   -1.5500    2.2670 c         1 MOL      0.702128
     44 O9         -5.1960   -0.9620    1.1380 o         1 MOL     -0.592804
     45 H17        -7.5630   -3.6270    2.0640 hn        1 MOL      0.311796
     46 H18        -6.0040   -3.3060    3.3130 h1        1 MOL      0.163239
     47 H19        -6.5820   -1.7260    3.8710 h1        1 MOL      0.163239
     48 N5         -4.1270   -1.6040    3.1200 n         1 MOL     -0.505274
     49 C16        -2.8450   -0.8860    2.9570 c3        1 MOL      0.023596
     50 C17        -2.0110   -1.4170    1.7610 c         1 MOL      0.516475
     51 O10        -0.9690   -0.8990    1.5780 o         1 MOL     -0.468072
     52 C18        -2.0980   -0.8550    4.3410 c3        1 MOL     -0.328389
     53 C19        -2.7820    0.1270    5.2450 c         1 MOL      0.704522
     54 N6         -2.1530    1.2660    5.3740 n         1 MOL     -0.777096
     55 O11        -3.8600   -0.0700    5.7780 o         1 MOL     -0.585303
     56 H20        -4.1870   -2.3570    3.7740 hn        1 MOL      0.267719
     57 H21        -3.1570    0.1330    2.7070 h1        1 MOL      0.132681
     58 H22        -1.1430   -0.4080    4.0670 hc        1 MOL      0.129275
     59 H23        -2.0340   -1.8360    4.7940 hc        1 MOL      0.129275
     60 H24        -1.2250    1.3660    5.0040 hn        1 MOL      0.373394
     61 H25        -2.5780    2.0030    5.9150 hn        1 MOL      0.373394
     62 N7         -2.4180   -2.3740    0.9590 n         1 MOL     -0.330571
     63 C20        -1.5400   -2.8960   -0.0960 c3        1 MOL     -0.061354
     64 C21        -1.4680   -2.1290   -1.3980 c         1 MOL      0.652778
     65 O12        -2.1820   -1.1290   -1.5100 o         1 MOL     -0.612953
     66 H26        -3.2630   -2.8700    1.1950 hn        1 MOL      0.227961
     67 H27        -1.8250   -3.9200   -0.3100 h1        1 MOL      0.097829
     68 H28        -0.5440   -3.1440    0.2830 h1        1 MOL      0.097829
     69 N8         -0.6280   -2.5390   -2.3780 n         1 MOL     -0.430101
     70 C22         0.2270   -3.8200   -2.4230 c3        1 MOL     -0.229204
     71 C23         1.5990   -3.7160   -1.7700 c         1 MOL      0.593388
     72 O13         2.2390   -4.7910   -1.5600 o         1 MOL     -0.552146
     73 C24         0.4380   -4.3410   -3.8670 c3        1 MOL      0.456804
     74 C25        -0.8510   -4.6580   -4.5160 c3        1 MOL     -0.364987
     75 O14         0.9630   -3.3010   -4.6510 oh        1 MOL     -0.582009
     76 H29        -0.6230   -1.9710   -3.2110 hn        1 MOL      0.315693
     77 H30        -0.3160   -4.5450   -1.8100 h1        1 MOL      0.107592
     78 H31         1.0320   -5.2570   -3.8310 h1        1 MOL     -0.006831
     79 H32         1.3890   -3.8350   -5.3270 ho        1 MOL      0.393837
     80 H33        -1.2460   -5.5840   -4.1000 hc        1 MOL      0.080120
     81 H34        -1.6120   -3.9100   -4.2860 hc        1 MOL      0.080120
     82 H35        -0.5730   -4.7170   -5.5700 hc        1 MOL      0.080120
     83 N9          2.0220   -2.4440   -1.6050 n         1 MOL     -0.508680
     84 C26         3.4090   -2.1180   -1.2210 c3        1 MOL      0.274133
     85 C27         3.6110   -1.2890    0.0200 c         1 MOL      0.447720
     86 O15         2.7760   -0.4500    0.3530 o         1 MOL     -0.549410
     87 C28         4.0570   -1.4370   -2.4310 c3        1 MOL      0.042072
     88 C29         3.2810   -0.2580   -3.0120 c3        1 MOL     -0.194461
     89 C30         4.5140   -2.4170   -3.4930 c3        1 MOL     -0.322633
     90 C31         4.0510    0.8200   -3.8040 c3        1 MOL     -0.039401
     91 H36         1.4660   -1.6590   -1.9160 hn        1 MOL      0.260453
     92 H37         3.8740   -3.1040   -1.1350 h1        1 MOL      0.029842
     93 H38         5.0010   -1.0070   -2.0870 hc        1 MOL      0.090394
     94 H39         2.8580    0.2500   -2.1470 hc        1 MOL      0.079761
     95 H40         2.3980   -0.4960   -3.6050 hc        1 MOL      0.079761
     96 H41         5.2650   -1.9770   -4.1490 hc        1 MOL      0.070259
     97 H42         5.2460   -3.1270   -3.1210 hc        1 MOL      0.070259
     98 H43         3.7440   -2.8950   -4.1110 hc        1 MOL      0.070259
     99 H44         3.4090    1.6660   -4.0710 hc        1 MOL      0.011436
    100 H45         4.9530    1.0040   -3.2330 hc        1 MOL      0.011436
    101 H46         4.3140    0.3750   -4.7660 hc        1 MOL      0.011436
    102 N10         4.7170   -1.2960    0.7700 n         1 MOL     -0.345231
    103 C32         5.9400   -2.0620    0.5420 c3        1 MOL     -0.041714
    104 C33         7.1510   -1.2000    1.0510 c         1 MOL      0.233349
    105 O16         7.0150   -0.5630    2.1160 o         1 MOL     -0.417751
    106 C34         5.9070   -3.4690    1.0730 c3        1 MOL     -0.142232
    107 C35         5.7020   -3.5400    2.6480 c         1 MOL      0.795100
    108 O17         4.5800   -3.5670    3.1470 o         1 MOL     -0.740123
    109 O18         6.6930   -3.8880    3.3530 o         1 MOL     -0.740123
    110 H47         4.6470   -0.9720    1.7200 hn        1 MOL      0.335755
    111 H48         6.1090   -2.0940   -0.5320 h1        1 MOL      0.026238
    112 H49         6.8070   -4.0730    0.9320 hc        1 MOL      0.005035
    113 H50         5.0740   -3.9370    0.5560 hc        1 MOL      0.005035
    114 N11         8.2660   -1.3240    0.3780 n         1 MOL     -0.250591
    115 C36         9.5230   -0.5910    0.6400 c3        1 MOL      0.087321
    116 C37        10.2480   -0.4550   -0.7060 c         1 MOL      0.052486
    117 O19        10.2670   -1.3990   -1.4610 o         1 MOL     -0.463248
    118 C38        10.3310   -1.3680    1.6220 c3        1 MOL      0.018832
    119 C39        11.5940   -0.6890    2.1270 ca        1 MOL     -0.118007
    120 C40        12.7780   -0.7980    1.3330 ca        1 MOL     -0.005918
    121 C41        11.5340    0.3100    3.1050 ca        1 MOL     -0.005918
    122 C42        13.9120   -0.0370    1.5260 ca        1 MOL     -0.227883
    123 C43        12.6710    1.0750    3.2750 ca        1 MOL     -0.227883
    124 C44        13.8300    0.9060    2.5550 ca        1 MOL     -0.028768
    125 H51         8.1900   -1.7800   -0.5190 hn        1 MOL      0.281199
    126 H52         9.2620    0.4050    1.0030 h1        1 MOL      0.077801
    127 H53        10.4320   -2.4040    1.3000 hc        1 MOL      0.057544
    128 H54         9.7520   -1.5950    2.5210 hc        1 MOL      0.057544
    129 H55        12.8560   -1.5920    0.6100 ha        1 MOL      0.108527
    130 H56        10.5930    0.4920    3.6050 ha        1 MOL      0.108527
    131 H57        14.7520   -0.2240    0.8730 ha        1 MOL      0.126609
    132 H58        12.5960    1.7560    4.1140 ha        1 MOL      0.126609
    133 H59        14.6410    1.6090    2.6800 ha        1 MOL      0.076225
    134 N12        10.8200    0.6970   -1.1060 n         1 MOL      0.213911
    135 C45        10.9500    1.8480   -0.2810 c3        1 MOL     -0.000333
    136 C46         9.6580    2.7000   -0.1380 c         1 MOL      0.391102
    137 O20         9.4350    3.3280    0.9250 o         1 MOL     -0.497799
    138 C47        12.1500    2.6780   -0.8850 c3        1 MOL     -0.072826
    139 C48        12.6640    1.8300   -2.0480 c3        1 MOL     -0.044763
    140 C49        11.5140    0.7930   -2.3340 c3        1 MOL     -0.187211
    141 H60        11.2820    1.5700    0.7180 h1        1 MOL      0.089219
    142 H61        11.7480    3.6520   -1.1390 hc        1 MOL      0.035146
    143 H62        12.9330    2.7740   -0.1250 hc        1 MOL      0.035146
    144 H63        12.8150    2.4950   -2.8870 hc        1 MOL      0.025087
    145 H64        13.5560    1.2300   -1.8440 hc        1 MOL      0.025087
    146 H65        10.8070    1.1140   -3.0970 h1        1 MOL      0.079802
    147 H66        11.9840   -0.1330   -2.6600 h1        1 MOL      0.079802
    148 N13         8.7160    2.7300   -1.1150 n         1 MOL     -0.424358
    149 C50         7.3510    3.2550   -1.0550 c3        1 MOL      0.046101
    150 C51         6.7640    3.5980   -2.5620 c         1 MOL      0.485389
    151 O21         6.8760    2.8650   -3.5030 o         1 MOL     -0.587319
    152 C52         6.4240    2.1790   -0.3320 c3        1 MOL      0.008651
    153 C53         4.9900    2.6520    0.0030 c3        1 MOL     -0.073210
    154 C54         4.9990    3.5160    1.3540 c         1 MOL      0.642350
    155 O22         4.3160    3.1060    2.3210 o         1 MOL     -0.695123
    156 O23         5.7680    4.4720    1.4200 o         1 MOL     -0.695123
    157 H67         8.9300    2.2430   -1.9820 hn        1 MOL      0.252047
    158 H68         7.3760    4.1490   -0.4440 h1        1 MOL      0.129134
    159 H69         6.8440    1.6630    0.5300 hc        1 MOL      0.056199
    160 H70         6.1690    1.4010   -1.0460 hc        1 MOL      0.056199
    161 H71         4.4540    1.7130    0.1360 hc        1 MOL     -0.026916
    162 H72         4.5470    3.2750   -0.7670 hc        1 MOL     -0.026916
    163 N14         6.2440    4.7560   -2.8870 n         1 MOL     -0.360086
    164 C55         5.8800    5.7850   -1.9490 c3        1 MOL     -0.067120
    165 H73         5.2310    5.3630   -1.1820 h1        1 MOL      0.044981
    166 H74         6.7800    6.1880   -1.4830 h1        1 MOL      0.044981
    167 H75         5.3530    6.5830   -2.4720 h1        1 MOL      0.044981
    168 H76         5.9120    4.9490   -3.8250 hn        1 MOL      0.283948
    169 Ca1        -6.3280    0.9500   -0.1940 Ca        1 MOL      1.704536
    170 O24        -4.6440    2.0070    1.6050 oh        1 MOL     -0.818299
    171 H77        -4.8570    2.1510    2.5320 ho        1 MOL      0.401144
    172 H78        -3.6880    2.0650    1.5750 ho        1 MOL      0.401144
    173 O25        -6.1060    3.6420   -0.6430 oh        1 MOL     -0.818299
    174 H79        -6.5090    4.3120   -1.1990 ho        1 MOL      0.401144
    175 H80        -5.1750    3.8640   -0.6380 ho        1 MOL      0.401144
    176 O26        -6.2520    1.7240   -2.7380 oh        1 MOL     -0.818299
    177 H81        -5.9770    2.5420   -3.1630 ho        1 MOL      0.401144
    178 H82        -6.7090    1.2490   -3.4350 ho        1 MOL      0.401144
    179 O27        -4.0090    0.5360   -1.2910 oh        1 MOL     -0.818299
    180 H83        -3.5030   -0.2570   -1.4490 ho        1 MOL      0.401144
    181 H84        -3.4500    1.2450   -1.5780 ho        1 MOL      0.401144
@<TRIPOS>BOND
     1    1    2 1   
     2    1    4 1   
     3    1    5 1   
     4    1    6 1   
     5    2    3 2   
     6    2    7 1   
     7    7    8 1   
     8    7   15 1   
     9    8    9 1   
    10    8   11 1   
    11    8   16 1   
    12    9   10 2   
    13    9   19 1   
    14   11   12 1   
    15   11   17 1   
    16   11   18 1   
    17   12   13 1   
    18   12   14 1   
    19   19   20 1   
    20   19   24 1   
    21   20   21 1   
    22   20   23 1   
    23   20   25 1   
    24   21   22 2   
    25   21   29 1   
    26   23   26 1   
    27   23   27 1   
    28   23   28 1   
    29   29   30 1   
    30   29   37 1   
    31   30   31 1   
    32   30   33 1   
    33   30   38 1   
    34   31   32 2   
    35   31   41 1   
    36   33   34 1   
    37   33   39 1   
    38   33   40 1   
    39   34   35 1   
    40   34   36 1   
    41   41   42 1   
    42   41   45 1   
    43   42   43 1   
    44   42   46 1   
    45   42   47 1   
    46   43   44 2   
    47   43   48 1   
    48   48   49 1   
    49   48   56 1   
    50   49   50 1   
    51   49   52 1   
    52   49   57 1   
    53   50   51 2   
    54   50   62 1   
    55   52   53 1   
    56   52   58 1   
    57   52   59 1   
    58   53   54 1   
    59   53   55 2   
    60   54   60 1   
    61   54   61 1   
    62   62   63 1   
    63   62   66 1   
    64   63   64 1   
    65   63   67 1   
    66   63   68 1   
    67   64   65 2   
    68   64   69 1   
    69   69   70 1   
    70   69   76 1   
    71   70   71 1   
    72   70   73 1   
    73   70   77 1   
    74   71   72 2   
    75   71   83 1   
    76   73   74 1   
    77   73   75 1   
    78   73   78 1   
    79   74   80 1   
    80   74   81 1   
    81   74   82 1   
    82   75   79 1   
    83   83   84 1   
    84   83   91 1   
    85   84   85 1   
    86   84   87 1   
    87   84   92 1   
    88   85   86 2   
    89   85  102 1   
    90   87   88 1   
    91   87   89 1   
    92   87   93 1   
    93   88   90 1   
    94   88   94 1   
    95   88   95 1   
    96   89   96 1   
    97   89   97 1   
    98   89   98 1   
    99   90   99 1   
   100   90  100 1   
   101   90  101 1   
   102  102  103 1   
   103  102  110 1   
   104  103  104 1   
   105  103  106 1   
   106  103  111 1   
   107  104  105 2   
   108  104  114 1   
   109  106  107 1   
   110  106  112 1   
   111  106  113 1   
   112  107  108 1   
   113  107  109 1   
   114  114  115 1   
   115  114  125 1   
   116  115  116 1   
   117  115  118 1   
   118  115  126 1   
   119  116  117 2   
   120  116  134 1   
   121  118  119 1   
   122  118  127 1   
   123  118  128 1   
   124  119  120 ar  
   125  119  121 ar  
   126  120  122 ar  
   127  120  129 1   
   128  121  123 ar  
   129  121  130 1   
   130  122  124 ar  
   131  122  131 1   
   132  123  124 ar  
   133  123  132 1   
   134  124  133 1   
   135  134  135 1   
   136  134  140 1   
   137  135  136 1   
   138  135  138 1   
   139  135  141 1   
   140  136  137 2   
   141  136  148 1   
   142  138  139 1   
   143  138  142 1   
   144  138  143 1   
   145  139  140 1   
   146  139  144 1   
   147  139  145 1   
   148  140  146 1   
   149  140  147 1   
   150  148  149 1   
   151  148  157 1   
   152  149  150 1   
   153  149  152 1   
   154  149  158 1   
   155  150  151 2   
   156  150  163 1   
   157  152  153 1   
   158  152  159 1   
   159  152  160 1   
   160  153  154 1   
   161  153  161 1   
   162  153  162 1   
   163  154  155 1   
   164  154  156 1   
   165  163  164 1   
   166  163  168 1   
   167  164  165 1   
   168  164  166 1   
   169  164  167 1   
   170  170  171 1   
   171  170  172 1   
   172  173  174 1   
   173  173  175 1   
   174  176  177 1   
   175  176  178 1   
   176  179  180 1   
   177  179  181 1   
@<TRIPOS>SUBSTRUCTURE
     1 MOL         1 TEMP              0 ****  ****    0 ROOT
