@<TRIPOS>MOLECULE
MOL
  192   187     1     0     0
SMALL
resp


@<TRIPOS>ATOM
      1 C1          4.7100   -6.7430   -0.9610 c3        1 MOL     -0.391085
      2 C2          4.2570   -5.3850   -0.3260 c         1 MOL      0.704302
      3 O1          3.6960   -5.2680    0.7630 o         1 MOL     -0.600775
      4 H1          3.8330   -7.2950   -1.2990 hc        1 MOL      0.105245
      5 H2          5.3650   -6.5470   -1.8100 hc        1 MOL      0.105245
      6 H3          5.2450   -7.3320   -0.2170 hc        1 MOL      0.105245
      7 N1          4.4350   -4.2530   -0.9770 n         1 MOL     -0.585203
      8 C3          4.1620   -2.8940   -0.5110 c3        1 MOL      0.281015
      9 C4          2.6800   -2.5930   -0.6270 c         1 MOL      0.167640
     10 O2          2.1740   -1.9120    0.1980 o         1 MOL     -0.371251
     11 C5          5.0070   -1.8450   -1.3020 c3        1 MOL     -0.168383
     12 C6          5.0900   -2.1270   -2.7960 c         1 MOL      0.674787
     13 O3          4.8410   -1.1860   -3.6250 o         1 MOL     -0.684092
     14 O4          5.6350   -3.2210   -3.1540 o         1 MOL     -0.684092
     15 H4          4.8320   -4.2490   -1.9000 hn        1 MOL      0.296582
     16 H5          4.4520   -2.8990    0.5380 h1        1 MOL      0.039795
     17 H6          5.9580   -1.8190   -0.7670 hc        1 MOL      0.044548
     18 H7          4.5750   -0.8840   -1.0200 hc        1 MOL      0.044548
     19 N2          1.9010   -3.1180   -1.5980 n         1 MOL     -0.175511
     20 C7          0.4920   -2.7690   -1.8150 c3        1 MOL      0.247715
     21 C8         -0.3180   -3.4920   -0.7690 c         1 MOL      0.424936
     22 O5         -0.0240   -4.6250   -0.2940 o         1 MOL     -0.558432
     23 C9          0.0470   -3.1630   -3.2430 c3        1 MOL     -0.146826
     24 C10         0.3850   -2.2750   -4.4380 c3        1 MOL     -0.041304
     25 C11         1.7780   -1.9350   -4.7280 c3        1 MOL     -0.235235
     26 C12         2.6010   -3.2090   -5.1950 c3        1 MOL      0.240466
     27 N3          3.8950   -2.7620   -5.6780 n4        1 MOL     -0.413719
     28 H8          2.2240   -3.9370   -2.1050 hn        1 MOL      0.188843
     29 H9          0.4190   -1.6930   -1.7110 h1        1 MOL      0.118412
     30 H10        -1.0300   -3.2680   -3.3190 hc        1 MOL      0.036093
     31 H11         0.4760   -4.1560   -3.4010 hc        1 MOL      0.036093
     32 H12        -0.2050   -1.3880   -4.2010 hc        1 MOL      0.069869
     33 H13        -0.0490   -2.6360   -5.3680 hc        1 MOL      0.069869
     34 H14         2.1940   -1.5370   -3.7940 hc        1 MOL      0.071834
     35 H15         1.6530   -1.2340   -5.5600 hc        1 MOL      0.071834
     36 H16         2.0200   -3.7490   -5.9480 hx        1 MOL      0.005775
     37 H17         2.7780   -3.8750   -4.3530 hx        1 MOL      0.005775
     38 H18         4.4030   -2.3110   -4.9380 hn        1 MOL      0.307830
     39 H19         4.5670   -3.4870   -5.8690 hn        1 MOL      0.307830
     40 H20         3.7650   -2.1010   -6.4300 hn        1 MOL      0.307830
     41 N4         -1.3730   -2.8480   -0.2240 n         1 MOL     -0.370011
     42 C13        -1.8350   -1.5140   -0.3970 c3        1 MOL     -0.867150
     43 C14        -2.2230   -1.2380   -1.8770 c         1 MOL      0.687564
     44 O6         -1.5530   -0.5090   -2.5830 o         1 MOL     -0.592748
     45 C15        -1.0520   -0.4020    0.3530 c3        1 MOL      0.305462
     46 C16        -0.9980   -0.7060    1.8350 c         1 MOL      0.463732
     47 O7         -0.0810   -0.2420    2.5540 o         1 MOL     -0.701632
     48 O8         -1.8880   -1.3620    2.3950 o         1 MOL     -0.701632
     49 H21        -1.8180   -3.4960    0.4190 hn        1 MOL      0.329506
     50 H22        -2.7990   -1.4980    0.1240 h1        1 MOL      0.303385
     51 H23        -1.4150    0.6320    0.2700 hc        1 MOL      0.019160
     52 H24        -0.0130   -0.3740    0.0070 hc        1 MOL      0.019160
     53 N5         -3.2220   -1.8850   -2.4510 n         1 MOL     -0.424427
     54 C17        -4.3390   -2.4840   -1.7800 c3        1 MOL      0.225425
     55 C18        -5.6240   -2.1950   -2.5360 c         1 MOL      0.469886
     56 O9         -5.6280   -1.7180   -3.6690 o         1 MOL     -0.546458
     57 H25        -3.2540   -1.8330   -3.4630 hn        1 MOL      0.266639
     58 H26        -4.4300   -2.0100   -0.8060 h1        1 MOL      0.044506
     59 H27        -4.2310   -3.5620   -1.7030 h1        1 MOL      0.044506
     60 N6         -6.7480   -2.3420   -1.8400 n         1 MOL     -0.450459
     61 C19        -6.9120   -2.6920   -0.3870 c3        1 MOL      0.015614
     62 C20        -7.7230   -1.6100    0.3410 c         1 MOL      0.397897
     63 O10        -8.4960   -0.8820   -0.2830 o         1 MOL     -0.440034
     64 C21        -7.6100   -4.0510   -0.2230 c3        1 MOL     -0.143221
     65 C22        -8.8470   -4.3080   -1.0800 c         1 MOL      0.718184
     66 O11        -8.8140   -5.2950   -1.8530 o         1 MOL     -0.646044
     67 O12        -9.8080   -3.5590   -1.0430 o         1 MOL     -0.646044
     68 H28        -7.6100   -2.1500   -2.3210 hn        1 MOL      0.351177
     69 H29        -5.9580   -2.8650    0.1200 h1        1 MOL      0.021593
     70 H30        -7.9790   -4.1300    0.7940 hc        1 MOL      0.004101
     71 H31        -6.8480   -4.8070   -0.4300 hc        1 MOL      0.004101
     72 N7         -7.5090   -1.4940    1.6130 n         1 MOL     -0.109963
     73 C23        -8.0320   -0.5730    2.5870 c3        1 MOL     -0.359330
     74 C24        -7.4380    0.8230    2.3160 c         1 MOL      0.496827
     75 O13        -8.1300    1.8600    2.2620 o         1 MOL     -0.517940
     76 H32        -6.9570   -2.2450    2.0080 hn        1 MOL      0.200646
     77 H33        -7.7570   -0.8660    3.5960 h1        1 MOL      0.167000
     78 H34        -9.1190   -0.5420    2.4330 h1        1 MOL      0.167000
     79 N8         -6.1190    0.9190    1.9400 n         1 MOL     -0.307912
     80 C25        -5.3160    2.1070    1.7080 c3        1 MOL      0.205286
     81 C26        -4.6330    1.9970    0.3720 c         1 MOL      0.322787
     82 O14        -4.0420    0.9130    0.0970 o         1 MOL     -0.524531
     83 C27        -4.2300    2.2690    2.8140 c3        1 MOL      0.569532
     84 C28        -4.7930    2.5740    4.1880 c3        1 MOL     -0.136225
     85 O15        -3.3320    3.3490    2.4520 oh        1 MOL     -0.725694
     86 H35        -5.5570    0.0780    1.9050 hn        1 MOL      0.128122
     87 H36        -5.9060    3.0180    1.6910 h1        1 MOL      0.019124
     88 H37        -3.6560    1.3570    2.9540 h1        1 MOL     -0.066400
     89 H38        -2.4510    2.9800    2.5910 ho        1 MOL      0.405087
     90 H39        -4.0720    2.9020    4.9370 hc        1 MOL      0.008382
     91 H40        -5.6330    3.2540    4.0520 hc        1 MOL      0.008382
     92 H41        -5.1890    1.6050    4.4720 hc        1 MOL      0.008382
     93 N9         -4.5050    3.0370   -0.3970 n         1 MOL     -0.285325
     94 C29        -3.7440    3.0310   -1.6850 c3        1 MOL     -0.129920
     95 C30        -2.5070    3.9530   -1.7220 c         1 MOL      0.347241
     96 O16        -1.9030    4.0620   -2.7620 o         1 MOL     -0.496810
     97 C31        -4.6550    3.0390   -2.9270 c3        1 MOL      0.153521
     98 C32        -5.5110    4.2730   -3.1880 c3        1 MOL      0.067790
     99 C33        -5.7040    1.8880   -2.9250 c3        1 MOL     -0.224354
    100 C34        -4.7510    5.6040   -3.4210 c3        1 MOL     -0.258584
    101 H42        -4.9700    3.9070   -0.2070 hn        1 MOL      0.297443
    102 H43        -3.2470    2.0980   -1.9200 h1        1 MOL      0.195924
    103 H44        -4.0310    2.8770   -3.8110 hc        1 MOL      0.029136
    104 H45        -6.2440    4.4340   -2.3950 hc        1 MOL     -0.008877
    105 H46        -6.0520    3.9950   -4.0970 hc        1 MOL     -0.008877
    106 H47        -6.3280    1.8210   -3.8180 hc        1 MOL      0.064057
    107 H48        -5.2100    0.9300   -2.7870 hc        1 MOL      0.064057
    108 H49        -6.4260    1.9500   -2.1020 hc        1 MOL      0.064057
    109 H50        -4.0260    5.4520   -4.2190 hc        1 MOL      0.063052
    110 H51        -5.3750    6.3900   -3.8370 hc        1 MOL      0.063052
    111 H52        -4.2230    6.0130   -2.5570 hc        1 MOL      0.063052
    112 N10        -2.0640    4.5450   -0.6100 n         1 MOL     -0.080526
    113 C35        -0.8940    5.4880   -0.6300 c3        1 MOL     -0.226857
    114 C36         0.5010    4.7590   -0.8050 c         1 MOL      0.417382
    115 O17         1.3110    5.2120   -1.5800 o         1 MOL     -0.518702
    116 C37        -0.7840    6.4850    0.5350 c3        1 MOL      0.280552
    117 C38        -1.0280    5.8840    1.9040 c3        1 MOL     -0.157704
    118 O18        -1.6960    7.6180    0.3720 oh        1 MOL     -0.607796
    119 H53        -2.6440    4.4080    0.2110 hn        1 MOL      0.119961
    120 H54        -1.0250    6.1050   -1.5200 h1        1 MOL      0.145962
    121 H55         0.1930    6.9780    0.5600 h1        1 MOL      0.051683
    122 H56        -1.5560    7.9120   -0.5340 ho        1 MOL      0.370764
    123 H57        -0.2900    5.0930    2.0540 hc        1 MOL      0.058978
    124 H58        -0.9720    6.5750    2.7390 hc        1 MOL      0.058978
    125 H59        -2.0280    5.4800    2.0230 hc        1 MOL      0.058978
    126 N11         0.7270    3.5720   -0.2950 n         1 MOL     -0.142361
    127 C39         1.8990    2.7530   -0.4410 c3        1 MOL     -0.005245
    128 C40         3.1970    3.2890    0.2330 c         1 MOL      0.534411
    129 O19         3.1540    4.4210    0.7580 o         1 MOL     -0.526415
    130 C41         2.1510    2.2640   -1.9040 c3        1 MOL      0.123718
    131 C42         0.9910    1.5170   -2.4410 c3        1 MOL     -0.163057
    132 O20         3.1860    1.3230   -1.9830 oh        1 MOL     -0.604758
    133 H60        -0.0580    3.0860    0.1000 hn        1 MOL      0.164988
    134 H61         1.6170    1.8880    0.1570 h1        1 MOL      0.062570
    135 H62         2.2770    3.1290   -2.5560 h1        1 MOL      0.064979
    136 H63         3.1550    1.1710   -2.9270 ho        1 MOL      0.382671
    137 H64         0.9720    0.5850   -1.8720 hc        1 MOL      0.058123
    138 H65         0.0150    1.9260   -2.1840 hc        1 MOL      0.058123
    139 H66         1.0410    1.1420   -3.4670 hc        1 MOL      0.058123
    140 N12         4.1590    2.4450    0.4890 n         1 MOL     -0.432179
    141 C43         5.3890    2.9000    1.1390 c3        1 MOL     -0.045191
    142 C44         6.1410    1.8260    1.9290 c         1 MOL      0.559120
    143 O21         7.2230    2.1630    2.3820 o         1 MOL     -0.570268
    144 C45         6.3870    3.5030    0.0580 c3        1 MOL     -0.178176
    145 C46         7.1540    2.5940   -0.9760 c3        1 MOL     -0.028148
    146 C47         8.0540    3.4880   -1.8920 c3        1 MOL     -0.039613
    147 C48         8.4390    2.5780   -3.0620 c3        1 MOL      0.112057
    148 N13         9.1070    3.3360   -4.2140 n4        1 MOL     -0.321510
    149 H67         4.1640    1.4920    0.1520 hn        1 MOL      0.317297
    150 H68         5.0760    3.5960    1.9320 h1        1 MOL      0.135017
    151 H69         6.9680    4.2110    0.6490 hc        1 MOL      0.087310
    152 H70         5.8610    4.2060   -0.5700 hc        1 MOL      0.087310
    153 H71         6.4560    2.0190   -1.5870 hc        1 MOL      0.043942
    154 H72         7.7380    1.8520   -0.4300 hc        1 MOL      0.043942
    155 H73         8.9290    3.9350   -1.4100 hc        1 MOL      0.040806
    156 H74         7.4740    4.3260   -2.2600 hc        1 MOL      0.040806
    157 H75         7.5830    2.0610   -3.4780 hx        1 MOL      0.061753
    158 H76         9.1790    1.8360   -2.7530 hx        1 MOL      0.061753
    159 H77         9.8480    3.8670   -3.7880 hn        1 MOL      0.259662
    160 H78         9.4270    2.7080   -4.9410 hn        1 MOL      0.259662
    161 H79         8.4250    3.9140   -4.6830 hn        1 MOL      0.259662
    162 N14         5.6140    0.6400    2.0880 n         1 MOL     -0.256619
    163 C49         6.0790   -0.3320    3.0840 c3        1 MOL     -0.145557
    164 C50         7.1360   -1.2770    2.5230 c         1 MOL      0.457476
    165 O22         6.9180   -2.0340    1.5910 o         1 MOL     -0.440018
    166 C51         4.9150   -1.2220    3.5210 c3        1 MOL      0.050734
    167 C52         4.1200   -0.5570    4.5720 c3        1 MOL      0.148150
    168 C53         2.6990   -1.0010    4.8080 c         1 MOL      0.670495
    169 O23         1.7830   -0.1460    4.7760 o         1 MOL     -0.802941
    170 O24         2.3940   -2.1940    5.0610 o         1 MOL     -0.802941
    171 H80         4.7560    0.3920    1.6070 hn        1 MOL      0.207262
    172 H81         6.4380    0.2540    3.9220 h1        1 MOL      0.078275
    173 H82         5.3310   -2.1340    3.9530 hc        1 MOL      0.029105
    174 H83         4.2260   -1.4290    2.7090 hc        1 MOL      0.029105
    175 H84         4.0610    0.5000    4.3020 hc        1 MOL     -0.036692
    176 H85         4.6700   -0.6740    5.5100 hc        1 MOL     -0.036692
    177 N15         8.4400   -1.1730    3.0360 n         1 MOL     -0.337373
    178 C54         9.6320   -1.9220    2.3910 c3        1 MOL     -0.197949
    179 H86        10.5660   -1.4610    2.7120 h1        1 MOL      0.106330
    180 H87         9.6170   -2.9670    2.7010 h1        1 MOL      0.106330
    181 H88         9.5530   -1.8630    1.3050 h1        1 MOL      0.106330
    182 H89         8.6420   -0.5720    3.8140 hn        1 MOL      0.271961
    183 Ca1        -0.1350   -1.8810    4.6340 Ca        1 MOL      1.764821
    184 O25        -1.4400    0.2620    5.8470 oh        1 MOL     -0.870600
    185 H90        -2.2100    0.7160    6.2020 ho        1 MOL      0.440948
    186 H91        -0.7500    0.9340    5.8550 ho        1 MOL      0.440948
    187 O26        -2.6250   -3.0740    5.5390 oh        1 MOL     -0.870600
    188 H92        -3.2520   -2.3520    5.6060 ho        1 MOL      0.440948
    189 H93        -3.0900   -3.7550    5.0520 ho        1 MOL      0.440948
    190 O27         0.9800   -2.9970    2.3840 oh        1 MOL     -0.870600
    191 H94         1.3870   -2.7000    1.5680 ho        1 MOL      0.440948
    192 H95         0.8360   -3.9310    2.2530 ho        1 MOL      0.440948
@<TRIPOS>BOND
     1    1    2 1   
     2    1    4 1   
     3    1    5 1   
     4    1    6 1   
     5    2    3 2   
     6    2    7 1   
     7    7    8 1   
     8    7   15 1   
     9    8    9 1   
    10    8   11 1   
    11    8   16 1   
    12    9   10 2   
    13    9   19 1   
    14   11   12 1   
    15   11   17 1   
    16   11   18 1   
    17   12   13 1   
    18   12   14 1   
    19   19   20 1   
    20   19   28 1   
    21   20   21 1   
    22   20   23 1   
    23   20   29 1   
    24   21   22 2   
    25   21   41 1   
    26   23   24 1   
    27   23   30 1   
    28   23   31 1   
    29   24   25 1   
    30   24   32 1   
    31   24   33 1   
    32   25   26 1   
    33   25   34 1   
    34   25   35 1   
    35   26   27 1   
    36   26   36 1   
    37   26   37 1   
    38   27   38 1   
    39   27   39 1   
    40   27   40 1   
    41   41   42 1   
    42   41   49 1   
    43   42   43 1   
    44   42   45 1   
    45   42   50 1   
    46   43   44 2   
    47   43   53 1   
    48   45   46 1   
    49   45   51 1   
    50   45   52 1   
    51   46   47 1   
    52   46   48 1   
    53   53   54 1   
    54   53   57 1   
    55   54   55 1   
    56   54   58 1   
    57   54   59 1   
    58   55   56 2   
    59   55   60 1   
    60   60   61 1   
    61   60   68 1   
    62   61   62 1   
    63   61   64 1   
    64   61   69 1   
    65   62   63 2   
    66   62   72 1   
    67   64   65 1   
    68   64   70 1   
    69   64   71 1   
    70   65   66 1   
    71   65   67 1   
    72   72   73 1   
    73   72   76 1   
    74   73   74 1   
    75   73   77 1   
    76   73   78 1   
    77   74   75 2   
    78   74   79 1   
    79   79   80 1   
    80   79   86 1   
    81   80   81 1   
    82   80   83 1   
    83   80   87 1   
    84   81   82 2   
    85   81   93 1   
    86   83   84 1   
    87   83   85 1   
    88   83   88 1   
    89   84   90 1   
    90   84   91 1   
    91   84   92 1   
    92   85   89 1   
    93   93   94 1   
    94   93  101 1   
    95   94   95 1   
    96   94   97 1   
    97   94  102 1   
    98   95   96 2   
    99   95  112 1   
   100   97   98 1   
   101   97   99 1   
   102   97  103 1   
   103   98  100 1   
   104   98  104 1   
   105   98  105 1   
   106   99  106 1   
   107   99  107 1   
   108   99  108 1   
   109  100  109 1   
   110  100  110 1   
   111  100  111 1   
   112  112  113 1   
   113  112  119 1   
   114  113  114 1   
   115  113  116 1   
   116  113  120 1   
   117  114  115 2   
   118  114  126 1   
   119  116  117 1   
   120  116  118 1   
   121  116  121 1   
   122  117  123 1   
   123  117  124 1   
   124  117  125 1   
   125  118  122 1   
   126  126  127 1   
   127  126  133 1   
   128  127  128 1   
   129  127  130 1   
   130  127  134 1   
   131  128  129 2   
   132  128  140 1   
   133  130  131 1   
   134  130  132 1   
   135  130  135 1   
   136  131  137 1   
   137  131  138 1   
   138  131  139 1   
   139  132  136 1   
   140  140  141 1   
   141  140  149 1   
   142  141  142 1   
   143  141  144 1   
   144  141  150 1   
   145  142  143 2   
   146  142  162 1   
   147  144  145 1   
   148  144  151 1   
   149  144  152 1   
   150  145  146 1   
   151  145  153 1   
   152  145  154 1   
   153  146  147 1   
   154  146  155 1   
   155  146  156 1   
   156  147  148 1   
   157  147  157 1   
   158  147  158 1   
   159  148  159 1   
   160  148  160 1   
   161  148  161 1   
   162  162  163 1   
   163  162  171 1   
   164  163  164 1   
   165  163  166 1   
   166  163  172 1   
   167  164  165 2   
   168  164  177 1   
   169  166  167 1   
   170  166  173 1   
   171  166  174 1   
   172  167  168 1   
   173  167  175 1   
   174  167  176 1   
   175  168  169 1   
   176  168  170 1   
   177  177  178 1   
   178  177  182 1   
   179  178  179 1   
   180  178  180 1   
   181  178  181 1   
   182  184  185 1   
   183  184  186 1   
   184  187  188 1   
   185  187  189 1   
   186  190  191 1   
   187  190  192 1   
@<TRIPOS>SUBSTRUCTURE
     1 MOL         1 TEMP              0 ****  ****    0 ROOT
