@<TRIPOS>MOLECULE
MOL
  178   175     1     0     0
SMALL
resp


@<TRIPOS>ATOM
      1 C1         -7.9820   -6.3700    2.7580 c3        1 MOL     -0.300134
      2 C2         -7.0490   -5.1030    2.7800 c         1 MOL      0.558037
      3 O1         -6.5880   -4.6570    3.7900 o         1 MOL     -0.574680
      4 H1         -7.3700   -7.2700    2.7040 hc        1 MOL      0.075782
      5 H2         -8.5840   -6.3940    3.6660 hc        1 MOL      0.075782
      6 H3         -8.6370   -6.3250    1.8870 hc        1 MOL      0.075782
      7 N1         -6.8130   -4.3690    1.7360 n         1 MOL     -0.257432
      8 C3         -7.3670   -4.4290    0.3800 c3        1 MOL      0.015796
      9 C4         -8.3000   -3.2410    0.0160 c         1 MOL      0.556821
     10 O2         -8.0430   -2.0910    0.3280 o         1 MOL     -0.599490
     11 C5         -6.2620   -4.5340   -0.6980 c3        1 MOL     -0.318001
     12 C6         -5.1280   -3.4640   -0.8220 c         1 MOL      0.713293
     13 O3         -4.2830   -3.6210   -1.7080 o         1 MOL     -0.640915
     14 O4         -5.1300   -2.5310   -0.0160 o         1 MOL     -0.640915
     15 H4         -6.1190   -3.6450    1.8680 hn        1 MOL      0.198991
     16 H5         -8.0130   -5.3140    0.3840 h1        1 MOL      0.047490
     17 H6         -6.8350   -4.5000   -1.6240 hc        1 MOL      0.064033
     18 H7         -5.7420   -5.4910   -0.6260 hc        1 MOL      0.064033
     19 N2         -9.3880   -3.6360   -0.6470 n         1 MOL     -0.503264
     20 C7        -10.6820   -2.9040   -0.9800 c3        1 MOL      0.139103
     21 C8        -10.5560   -1.5250   -1.7160 c         1 MOL      0.345667
     22 O5        -11.4570   -1.2260   -2.5210 o         1 MOL     -0.566065
     23 C9        -11.5050   -2.8100    0.3610 c3        1 MOL     -0.159177
     24 H8         -9.3340   -4.5570   -1.0660 hn        1 MOL      0.299577
     25 H9        -11.3140   -3.5250   -1.6210 h1        1 MOL      0.060795
     26 H10       -12.5370   -2.4920    0.2080 hc        1 MOL      0.053373
     27 H11       -11.6520   -3.7690    0.8720 hc        1 MOL      0.053373
     28 H12       -11.0630   -2.0710    1.0210 hc        1 MOL      0.053373
     29 N3         -9.5130   -0.7360   -1.5520 n         1 MOL     -0.064716
     30 C10        -9.0530    0.4370   -2.4130 c3        1 MOL     -0.051629
     31 C11        -7.5130    0.4130   -2.5080 c         1 MOL      0.337639
     32 O6         -6.8770   -0.4570   -1.9260 o         1 MOL     -0.448776
     33 C12        -9.5460    1.7490   -1.7260 c3        1 MOL     -0.078075
     34 C13        -8.9670    1.9010   -0.2610 c         1 MOL      0.587401
     35 O7         -9.3000    2.9840    0.3940 o         1 MOL     -0.677939
     36 O8         -8.1730    1.0540    0.2070 o         1 MOL     -0.677939
     37 H13        -8.9150   -1.0490   -0.8020 hn        1 MOL      0.160950
     38 H14        -9.4890    0.3990   -3.4110 h1        1 MOL      0.073818
     39 H15       -10.6410    1.6980   -1.7410 hc        1 MOL      0.030189
     40 H16        -9.1830    2.5170   -2.4090 hc        1 MOL      0.030189
     41 N4         -6.8730    1.4340   -3.0980 n         1 MOL     -0.215947
     42 C14        -5.3920    1.5680   -3.2430 c3        1 MOL     -0.467091
     43 C15        -4.5920    1.8410   -1.9340 c         1 MOL      0.728102
     44 O9         -5.2690    1.7520   -0.8780 o         1 MOL     -0.540606
     45 H17        -7.4070    2.1290   -3.5930 hn        1 MOL      0.271092
     46 H18        -5.3070    2.4730   -3.8550 h1        1 MOL      0.182735
     47 H19        -4.9520    0.7130   -3.7490 h1        1 MOL      0.182735
     48 N5         -3.2230    1.9450   -2.0450 n         1 MOL     -0.603234
     49 C16        -2.2370    2.2300   -1.0160 c3        1 MOL      0.327130
     50 C17        -1.3010    3.3870   -1.2740 c         1 MOL      0.318094
     51 O10        -0.9670    3.7840   -2.3710 o         1 MOL     -0.491231
     52 C18        -1.4510    0.9550   -0.6460 c3        1 MOL     -0.021813
     53 C19        -2.2520   -0.2740   -0.1890 c         1 MOL      0.650510
     54 N6         -1.6540   -1.4110   -0.0470 n         1 MOL     -0.683074
     55 O11        -3.4600   -0.2270   -0.0910 o         1 MOL     -0.704624
     56 H20        -2.8990    1.8460   -2.9930 hn        1 MOL      0.298967
     57 H21        -2.8320    2.5070   -0.1530 h1        1 MOL     -0.049434
     58 H22        -0.7770    1.2370    0.1600 hc        1 MOL      0.038330
     59 H23        -0.9440    0.6100   -1.5480 hc        1 MOL      0.038330
     60 H24        -0.6550   -1.4250    0.1310 hn        1 MOL      0.345921
     61 H25        -2.1910   -2.1790    0.3310 hn        1 MOL      0.345921
     62 N7         -0.9060    4.0910   -0.2030 n         1 MOL     -0.100935
     63 C20        -0.2880    5.3510   -0.2290 c3        1 MOL     -0.488383
     64 C21        -0.1420    5.9900    1.1630 c         1 MOL      0.623505
     65 O12        -1.0650    5.8670    1.9800 o         1 MOL     -0.587105
     66 H26        -1.2570    3.8020    0.6960 hn        1 MOL      0.234819
     67 H27        -1.0410    5.9740   -0.6980 h1        1 MOL      0.198278
     68 H28         0.6350    5.1720   -0.7900 h1        1 MOL      0.198278
     69 N8          0.9680    6.6240    1.5170 n         1 MOL     -0.380658
     70 C22         2.0050    7.0630    0.6460 c3        1 MOL      0.013814
     71 C23         3.2170    6.1120    0.2970 c         1 MOL      0.494099
     72 O13         4.1880    6.5310   -0.2800 o         1 MOL     -0.517820
     73 C24         2.5420    8.4270    1.0190 c3        1 MOL      0.307453
     74 C25         1.4190    9.4430    1.0780 c3        1 MOL     -0.261832
     75 O14         2.9590    8.4030    2.3780 oh        1 MOL     -0.630494
     76 H29         0.9860    6.9060    2.4890 hn        1 MOL      0.293888
     77 H30         1.6660    7.1660   -0.3820 h1        1 MOL      0.073660
     78 H31         3.4100    8.6790    0.4150 h1        1 MOL      0.021810
     79 H32         3.2820    9.2850    2.5660 ho        1 MOL      0.394602
     80 H33         0.6960    9.2510    1.8740 hc        1 MOL      0.052532
     81 H34         1.8010   10.4480    1.2840 hc        1 MOL      0.052532
     82 H35         0.8770    9.4480    0.1270 hc        1 MOL      0.052532
     83 N9          3.1240    4.7740    0.5250 n         1 MOL     -0.352491
     84 C26         3.9720    3.7140    0.0330 c3        1 MOL      0.016848
     85 C27         3.0140    2.5850   -0.4740 c         1 MOL      0.557506
     86 O15         1.8440    2.5380   -0.0730 o         1 MOL     -0.541251
     87 C28         5.0600    3.2030    1.0310 c3        1 MOL      0.128945
     88 C29         4.3580    2.5990    2.2900 c3        1 MOL     -0.092607
     89 C30         6.0150    4.3520    1.3140 c3        1 MOL     -0.276791
     90 C31         5.4970    2.1430    3.2400 c3        1 MOL     -0.328952
     91 H36         2.3190    4.4860    1.0410 hn        1 MOL      0.193206
     92 H37         4.5830    4.1880   -0.7330 h1        1 MOL      0.104064
     93 H38         5.5920    2.4200    0.4950 hc        1 MOL      0.043163
     94 H39         3.6810    1.7910    2.0030 hc        1 MOL      0.075687
     95 H40         3.7580    3.3800    2.7540 hc        1 MOL      0.075687
     96 H41         5.5880    5.0440    2.0380 hc        1 MOL      0.064632
     97 H42         6.9310    3.9410    1.7410 hc        1 MOL      0.064632
     98 H43         6.2700    4.8300    0.3670 hc        1 MOL      0.064632
     99 H44         5.9590    3.0710    3.5790 hc        1 MOL      0.078459
    100 H45         5.0000    1.5130    3.9800 hc        1 MOL      0.078459
    101 H46         6.1520    1.4650    2.7030 hc        1 MOL      0.078459
    102 N10         3.4240    1.6390   -1.3450 n         1 MOL     -0.540357
    103 C32         4.7060    1.3870   -1.9720 c3        1 MOL      0.211260
    104 C33         5.0410   -0.1160   -1.8810 c         1 MOL      0.570210
    105 O16         4.2130   -0.9660   -1.6200 o         1 MOL     -0.536437
    106 C34         4.7490    1.9010   -3.4040 c3        1 MOL     -0.157489
    107 C35         4.5690    3.3690   -3.4010 c         1 MOL      0.803693
    108 O17         5.5890    4.0340   -3.1410 o         1 MOL     -0.739041
    109 O18         3.5630    3.9440   -3.8310 o         1 MOL     -0.739041
    110 H47         2.7000    0.9950   -1.6260 hn        1 MOL      0.311755
    111 H48         5.5580    1.8860   -1.5050 h1        1 MOL     -0.035824
    112 H49         4.0050    1.3870   -4.0100 hc        1 MOL     -0.010586
    113 H50         5.7370    1.6880   -3.8050 hc        1 MOL     -0.010586
    114 N11         6.3130   -0.4230   -2.0980 n         1 MOL     -0.645042
    115 C36         6.8870   -1.7900   -2.0200 c3        1 MOL      0.543522
    116 C37         8.1210   -1.7970   -1.1190 c         1 MOL      0.082064
    117 O19         8.7970   -0.7320   -1.1350 o         1 MOL     -0.489517
    118 C38         7.1130   -2.3760   -3.4770 c3        1 MOL     -0.362534
    119 C39         7.6340   -3.7310   -3.6210 ca        1 MOL      0.337354
    120 C40         8.9970   -4.0570   -3.4090 ca        1 MOL     -0.268376
    121 C41         6.7930   -4.6530   -4.1910 ca        1 MOL     -0.268376
    122 C42         9.4280   -5.3720   -3.5370 ca        1 MOL     -0.072567
    123 C43         7.2810   -5.9490   -4.4690 ca        1 MOL     -0.072567
    124 C44         8.5710   -6.3250   -4.1170 ca        1 MOL     -0.183049
    125 H51         7.0470    0.2060   -2.3930 hn        1 MOL      0.355095
    126 H52         6.1890   -2.4630   -1.5130 h1        1 MOL     -0.062602
    127 H53         7.8590   -1.7190   -3.9250 hc        1 MOL      0.086695
    128 H54         6.1390   -2.1880   -3.9270 hc        1 MOL      0.086695
    129 H55         9.7090   -3.3970   -2.9280 ha        1 MOL      0.151276
    130 H56         5.7800   -4.3290   -4.3940 ha        1 MOL      0.151276
    131 H57        10.4110   -5.6590   -3.1980 ha        1 MOL      0.103471
    132 H58         6.6680   -6.6290   -5.0410 ha        1 MOL      0.103471
    133 H59         8.9060   -7.3400   -4.2700 ha        1 MOL      0.109553
    134 N12         8.3340   -2.8200   -0.2360 n         1 MOL      0.180520
    135 C45         7.6280   -4.0730    0.0120 c3        1 MOL      0.015706
    136 C46         6.4660   -3.9420    1.0520 c         1 MOL      0.564692
    137 O20         5.5920   -4.7890    1.1540 o         1 MOL     -0.592806
    138 C47         8.6610   -5.0550    0.5640 c3        1 MOL     -0.048973
    139 C48         9.7670   -4.2180    1.1530 c3        1 MOL      0.022001
    140 C49         9.4710   -2.7170    0.7190 c3        1 MOL     -0.330889
    141 H60         7.1620   -4.5170   -0.8780 h1        1 MOL      0.041434
    142 H61         8.2480   -5.7620    1.2720 hc        1 MOL      0.010617
    143 H62         9.1540   -5.5200   -0.2890 hc        1 MOL      0.010617
    144 H63         9.7570   -4.2910    2.2470 hc        1 MOL      0.015345
    145 H64        10.7450   -4.4710    0.7590 hc        1 MOL      0.015345
    146 H65         9.2830   -2.1800    1.6450 h1        1 MOL      0.128405
    147 H66        10.3290   -2.4220    0.1170 h1        1 MOL      0.128405
    148 N13         6.3520   -2.8920    1.8520 n         1 MOL     -0.537384
    149 C50         5.3210   -2.7410    2.8810 c3        1 MOL      0.303736
    150 C51         6.1140   -2.2270    4.0820 c         1 MOL      0.389813
    151 O21         6.4460   -1.0670    4.2670 o         1 MOL     -0.497904
    152 C52         4.3430   -1.6600    2.3480 c3        1 MOL     -0.306077
    153 C53         3.2150   -1.4380    3.3540 c3        1 MOL     -0.546707
    154 C54         2.1640   -0.4640    2.8970 c         1 MOL      0.921528
    155 O22         1.6050   -0.8430    1.8500 o         1 MOL     -0.770412
    156 O23         1.6570    0.4220    3.6060 o         1 MOL     -0.770412
    157 H67         7.0820   -2.1880    1.7970 hn        1 MOL      0.297234
    158 H68         4.6920   -3.6120    3.0740 h1        1 MOL      0.111608
    159 H69         3.8530   -2.1110    1.4870 hc        1 MOL      0.152278
    160 H70         4.7940   -0.6820    2.1770 hc        1 MOL      0.152278
    161 H71         3.6350   -1.2470    4.3410 hc        1 MOL      0.118314
    162 H72         2.7090   -2.3960    3.4370 hc        1 MOL      0.118314
    163 N14         6.3530   -3.1730    5.0190 n         1 MOL     -0.372573
    164 C55         6.3200   -4.6830    4.8220 c3        1 MOL     -0.230357
    165 H73         7.1270   -4.9790    4.1520 h1        1 MOL      0.108356
    166 H74         6.4480   -5.1780    5.7850 h1        1 MOL      0.108356
    167 H75         5.3630   -4.9720    4.3880 h1        1 MOL      0.108356
    168 H76         6.7200   -2.8510    5.9040 hn        1 MOL      0.274926
    169 Ca1        -5.9850   -0.3690    0.8670 Ca        1 MOL      1.793241
    170 O24        -4.4740    1.4630    2.3540 oh        1 MOL     -0.877599
    171 H77        -4.3450    1.2040    3.2690 ho        1 MOL      0.432108
    172 H78        -3.8020    2.1270    2.1920 ho        1 MOL      0.432108
    173 O25        -5.1280   -1.5030    2.9990 oh        1 MOL     -0.877599
    174 H79        -4.2540   -1.8930    2.9820 ho        1 MOL      0.432108
    175 H80        -5.3870   -1.5310    3.9190 ho        1 MOL      0.432108
    176 O26        -7.7650    0.4960    2.8940 oh        1 MOL     -0.877599
    177 H81        -8.0510    0.7670    3.7650 ho        1 MOL      0.432108
    178 H82        -8.3930    0.9050    2.2970 ho        1 MOL      0.432108
@<TRIPOS>BOND
     1    1    2 1   
     2    1    4 1   
     3    1    5 1   
     4    1    6 1   
     5    2    3 2   
     6    2    7 1   
     7    7    8 1   
     8    7   15 1   
     9    8    9 1   
    10    8   11 1   
    11    8   16 1   
    12    9   10 2   
    13    9   19 1   
    14   11   12 1   
    15   11   17 1   
    16   11   18 1   
    17   12   13 1   
    18   12   14 1   
    19   19   20 1   
    20   19   24 1   
    21   20   21 1   
    22   20   23 1   
    23   20   25 1   
    24   21   22 2   
    25   21   29 1   
    26   23   26 1   
    27   23   27 1   
    28   23   28 1   
    29   29   30 1   
    30   29   37 1   
    31   30   31 1   
    32   30   33 1   
    33   30   38 1   
    34   31   32 2   
    35   31   41 1   
    36   33   34 1   
    37   33   39 1   
    38   33   40 1   
    39   34   35 1   
    40   34   36 1   
    41   41   42 1   
    42   41   45 1   
    43   42   43 1   
    44   42   46 1   
    45   42   47 1   
    46   43   44 2   
    47   43   48 1   
    48   48   49 1   
    49   48   56 1   
    50   49   50 1   
    51   49   52 1   
    52   49   57 1   
    53   50   51 2   
    54   50   62 1   
    55   52   53 1   
    56   52   58 1   
    57   52   59 1   
    58   53   54 1   
    59   53   55 2   
    60   54   60 1   
    61   54   61 1   
    62   62   63 1   
    63   62   66 1   
    64   63   64 1   
    65   63   67 1   
    66   63   68 1   
    67   64   65 2   
    68   64   69 1   
    69   69   70 1   
    70   69   76 1   
    71   70   71 1   
    72   70   73 1   
    73   70   77 1   
    74   71   72 2   
    75   71   83 1   
    76   73   74 1   
    77   73   75 1   
    78   73   78 1   
    79   74   80 1   
    80   74   81 1   
    81   74   82 1   
    82   75   79 1   
    83   83   84 1   
    84   83   91 1   
    85   84   85 1   
    86   84   87 1   
    87   84   92 1   
    88   85   86 2   
    89   85  102 1   
    90   87   88 1   
    91   87   89 1   
    92   87   93 1   
    93   88   90 1   
    94   88   94 1   
    95   88   95 1   
    96   89   96 1   
    97   89   97 1   
    98   89   98 1   
    99   90   99 1   
   100   90  100 1   
   101   90  101 1   
   102  102  103 1   
   103  102  110 1   
   104  103  104 1   
   105  103  106 1   
   106  103  111 1   
   107  104  105 2   
   108  104  114 1   
   109  106  107 1   
   110  106  112 1   
   111  106  113 1   
   112  107  108 1   
   113  107  109 1   
   114  114  115 1   
   115  114  125 1   
   116  115  116 1   
   117  115  118 1   
   118  115  126 1   
   119  116  117 2   
   120  116  134 1   
   121  118  119 1   
   122  118  127 1   
   123  118  128 1   
   124  119  120 ar  
   125  119  121 ar  
   126  120  122 ar  
   127  120  129 1   
   128  121  123 ar  
   129  121  130 1   
   130  122  124 ar  
   131  122  131 1   
   132  123  124 ar  
   133  123  132 1   
   134  124  133 1   
   135  134  135 1   
   136  134  140 1   
   137  135  136 1   
   138  135  138 1   
   139  135  141 1   
   140  136  137 2   
   141  136  148 1   
   142  138  139 1   
   143  138  142 1   
   144  138  143 1   
   145  139  140 1   
   146  139  144 1   
   147  139  145 1   
   148  140  146 1   
   149  140  147 1   
   150  148  149 1   
   151  148  157 1   
   152  149  150 1   
   153  149  152 1   
   154  149  158 1   
   155  150  151 2   
   156  150  163 1   
   157  152  153 1   
   158  152  159 1   
   159  152  160 1   
   160  153  154 1   
   161  153  161 1   
   162  153  162 1   
   163  154  155 1   
   164  154  156 1   
   165  163  164 1   
   166  163  168 1   
   167  164  165 1   
   168  164  166 1   
   169  164  167 1   
   170  170  171 1   
   171  170  172 1   
   172  173  174 1   
   173  173  175 1   
   174  176  177 1   
   175  176  178 1   
@<TRIPOS>SUBSTRUCTURE
     1 MOL         1 TEMP              0 ****  ****    0 ROOT
