@<TRIPOS>MOLECULE
MOL
  178   175     1     0     0
SMALL
resp


@<TRIPOS>ATOM
      1 C1         -2.7620   -5.1340   -3.1420 c3        1 MOL     -0.359174
      2 C2         -3.9740   -5.3730   -2.1920 c         1 MOL      0.771013
      3 O1         -3.8110   -5.9510   -1.1980 o         1 MOL     -0.588286
      4 H1         -1.9120   -5.7250   -2.8030 hc        1 MOL      0.079870
      5 H2         -3.0300   -5.4330   -4.1560 hc        1 MOL      0.079870
      6 H3         -2.4950   -4.0770   -3.1330 hc        1 MOL      0.079870
      7 N1         -5.1360   -4.8340   -2.5510 n         1 MOL     -0.757676
      8 C3         -6.4170   -5.0380   -1.8660 c3        1 MOL      0.403820
      9 C4         -6.5910   -4.0380   -0.6950 c         1 MOL      0.538090
     10 O2         -7.4480   -3.1910   -0.7640 o         1 MOL     -0.497344
     11 C5         -7.6200   -4.8540   -2.9080 c3        1 MOL     -0.358959
     12 C6         -9.0350   -5.2340   -2.4230 c         1 MOL      0.790665
     13 O3         -9.1700   -6.2440   -1.7660 o         1 MOL     -0.742968
     14 O4        -10.0650   -4.6080   -2.8570 o         1 MOL     -0.742968
     15 H4         -5.0900   -4.3400   -3.4400 hn        1 MOL      0.345516
     16 H5         -6.5390   -6.0200   -1.4060 h1        1 MOL     -0.016563
     17 H6         -7.2530   -5.3810   -3.7940 hc        1 MOL      0.032346
     18 H7         -7.5720   -3.8190   -3.2420 hc        1 MOL      0.032346
     19 N2         -5.7980   -4.2450    0.3920 n         1 MOL     -0.597563
     20 C7         -5.6070   -3.3820    1.5520 c3        1 MOL      0.460693
     21 C8         -4.1510   -3.4070    2.0970 c         1 MOL      0.430611
     22 O5         -3.3720   -4.2410    1.7750 o         1 MOL     -0.488469
     23 C9         -6.5500   -3.9530    2.6340 c3        1 MOL     -0.409994
     24 H8         -5.2890   -5.1180    0.3080 hn        1 MOL      0.280328
     25 H9         -5.9300   -2.3570    1.3160 h1        1 MOL     -0.011377
     26 H10        -7.5700   -3.5960    2.4780 hc        1 MOL      0.088416
     27 H11        -6.6310   -5.0430    2.5730 hc        1 MOL      0.088416
     28 H12        -6.1860   -3.7400    3.6380 hc        1 MOL      0.088416
     29 N3         -3.8030   -2.6660    3.1670 n         1 MOL     -0.385718
     30 C10        -4.4070   -1.4360    3.6570 c3        1 MOL     -0.024321
     31 C11        -4.7680   -0.3750    2.5140 c         1 MOL      0.530977
     32 O6         -4.0590   -0.3900    1.4920 o         1 MOL     -0.479506
     33 C12        -3.4480   -0.6350    4.5980 c3        1 MOL     -0.001850
     34 C13        -2.0540   -0.4770    4.0060 c         1 MOL      0.757004
     35 O7         -1.6530    0.6650    3.7810 o         1 MOL     -0.791144
     36 O8         -1.2330   -1.3960    4.0190 o         1 MOL     -0.791144
     37 H13        -2.8780   -2.8600    3.5340 hn        1 MOL      0.267956
     38 H14        -5.2500   -1.6550    4.3190 h1        1 MOL      0.012743
     39 H15        -3.4010   -1.1840    5.5380 hc        1 MOL     -0.003297
     40 H16        -3.9390    0.2990    4.8920 hc        1 MOL     -0.003297
     41 N4         -5.8290    0.4140    2.6960 n         1 MOL     -0.557178
     42 C14        -6.1560    1.4660    1.7440 c3        1 MOL      0.180602
     43 C15        -6.7550    1.1860    0.3420 c         1 MOL      0.551523
     44 O9         -7.2950    0.0720    0.1480 o         1 MOL     -0.471211
     45 H17        -6.3810    0.4040    3.5430 hn        1 MOL      0.323016
     46 H18        -5.2080    1.9780    1.5640 h1        1 MOL      0.015667
     47 H19        -6.7850    2.1350    2.3490 h1        1 MOL      0.015667
     48 N5         -6.7350    2.1620   -0.5720 n         1 MOL     -0.568655
     49 C16        -6.4480    3.6150   -0.5900 c3        1 MOL     -0.056893
     50 C17        -5.8400    3.9980   -1.9780 c         1 MOL      0.717444
     51 O10        -6.5410    4.0060   -3.0150 o         1 MOL     -0.533567
     52 C18        -7.6870    4.4250   -0.4020 c3        1 MOL     -0.171073
     53 C19        -8.5270    4.1850    0.8490 c         1 MOL      0.650095
     54 N6         -8.8150    5.1590    1.6640 n         1 MOL     -0.779399
     55 O11        -8.9280    3.0880    1.1320 o         1 MOL     -0.488979
     56 H20        -6.9710    1.7580   -1.4660 hn        1 MOL      0.338792
     57 H21        -5.6790    3.8590    0.1500 h1        1 MOL      0.042587
     58 H22        -8.2340    4.3800   -1.3480 hc        1 MOL      0.054635
     59 H23        -7.3950    5.4760   -0.4900 hc        1 MOL      0.054635
     60 H24        -8.2950    6.0130    1.5280 hn        1 MOL      0.352962
     61 H25        -9.2090    4.8920    2.5600 hn        1 MOL      0.352962
     62 N7         -4.5570    4.3950   -1.9960 n         1 MOL     -0.531670
     63 C20        -4.0480    5.1420   -3.1980 c3        1 MOL     -0.194491
     64 C21        -2.5510    5.3260   -3.1900 c         1 MOL      0.538504
     65 O12        -2.0630    6.0960   -4.0440 o         1 MOL     -0.573003
     66 H26        -4.0580    4.4540   -1.1260 hn        1 MOL      0.342924
     67 H27        -4.4710    6.1370   -3.2630 h1        1 MOL      0.149695
     68 H28        -4.2590    4.6190   -4.1300 h1        1 MOL      0.149695
     69 N8         -1.7390    4.8040   -2.2470 n         1 MOL     -0.280514
     70 C22        -0.3450    5.1740   -2.0940 c3        1 MOL     -0.001472
     71 C23         0.4620    3.9180   -1.6910 c         1 MOL      0.315863
     72 O13        -0.0090    2.8910   -1.1500 o         1 MOL     -0.504789
     73 C24        -0.3620    6.0880   -0.8540 c3        1 MOL      0.420829
     74 C25        -1.2000    7.3700   -0.8440 c3        1 MOL     -0.249677
     75 O14        -0.7080    5.4220    0.3720 oh        1 MOL     -0.623254
     76 H29        -2.1190    4.1240   -1.5960 hn        1 MOL      0.225163
     77 H30         0.1310    5.5850   -2.9790 h1        1 MOL      0.084663
     78 H31         0.6420    6.4940   -0.7210 h1        1 MOL     -0.030017
     79 H32         0.0640    5.5240    0.9300 ho        1 MOL      0.396494
     80 H33        -1.0380    7.8150    0.1400 hc        1 MOL      0.050036
     81 H34        -0.8100    7.9750   -1.6640 hc        1 MOL      0.050036
     82 H35        -2.2540    7.1830   -1.0480 hc        1 MOL      0.050036
     83 N9          1.7510    4.0770   -1.8420 n         1 MOL     -0.080714
     84 C26         2.8600    3.1540   -1.4990 c3        1 MOL     -0.236502
     85 C27         3.6880    3.6650   -0.3160 c         1 MOL      0.272595
     86 O15         4.0850    4.8410   -0.2420 o         1 MOL     -0.519392
     87 C28         3.8180    3.0050   -2.7760 c3        1 MOL      0.288408
     88 C29         4.9950    1.9810   -2.5960 c3        1 MOL      0.120175
     89 C30         3.0230    2.6150   -4.0400 c3        1 MOL     -0.383463
     90 C31         5.8570    1.5710   -3.7900 c3        1 MOL     -0.102603
     91 H36         2.0140    5.0110   -2.1330 hn        1 MOL      0.167666
     92 H37         2.3140    2.2560   -1.2350 h1        1 MOL      0.288984
     93 H38         4.2430    3.9710   -3.0270 hc        1 MOL     -0.021325
     94 H39         4.5900    1.0420   -2.2250 hc        1 MOL     -0.012974
     95 H40         5.7520    2.4830   -2.0000 hc        1 MOL     -0.012974
     96 H41         3.6820    2.7320   -4.9070 hc        1 MOL      0.070430
     97 H42         2.6680    1.5780   -4.0470 hc        1 MOL      0.070430
     98 H43         2.1580    3.2840   -4.0330 hc        1 MOL      0.070430
     99 H44         5.3820    0.8020   -4.3980 hc        1 MOL      0.008700
    100 H45         6.1590    2.4590   -4.3610 hc        1 MOL      0.008700
    101 H46         6.7080    1.0180   -3.3910 hc        1 MOL      0.008700
    102 N10         3.9670    2.7360    0.6140 n         1 MOL     -0.125219
    103 C32         4.9560    2.8830    1.6520 c3        1 MOL      0.033625
    104 C33         5.9390    1.7330    1.7480 c         1 MOL      0.454595
    105 O16         6.8120    1.6910    2.6240 o         1 MOL     -0.556934
    106 C34         4.1810    3.3300    2.9230 c3        1 MOL     -0.206731
    107 C35         3.0670    2.3660    3.3820 c         1 MOL      0.784982
    108 O17         1.8890    2.7820    3.4910 o         1 MOL     -0.778393
    109 O18         3.2370    1.1240    3.6310 o         1 MOL     -0.778393
    110 H47         3.5260    1.8350    0.4750 hn        1 MOL      0.135544
    111 H48         5.6190    3.6780    1.3360 h1        1 MOL      0.094953
    112 H49         3.7220    4.3050    2.7630 hc        1 MOL      0.063655
    113 H50         4.8610    3.5080    3.7470 hc        1 MOL      0.063655
    114 N11         5.9260    0.8500    0.7550 n         1 MOL     -0.211330
    115 C36         6.8670   -0.2610    0.4950 c3        1 MOL      0.246292
    116 C37         6.1100   -1.4440   -0.0910 c         1 MOL      0.240723
    117 O19         5.9270   -1.4330   -1.3260 o         1 MOL     -0.406677
    118 C38         8.0380    0.2250   -0.4090 c3        1 MOL     -0.390884
    119 C39         9.2250   -0.7030   -0.5220 ca        1 MOL      0.183420
    120 C40         9.9400   -0.9390    0.6680 ca        1 MOL     -0.172501
    121 C41         9.5890   -1.2770   -1.7590 ca        1 MOL     -0.172501
    122 C42        11.0390   -1.8200    0.7230 ca        1 MOL     -0.119945
    123 C43        10.7210   -2.1190   -1.7550 ca        1 MOL     -0.119945
    124 C44        11.4220   -2.3780   -0.5340 ca        1 MOL     -0.168389
    125 H51         5.2250    0.9450    0.0290 hn        1 MOL      0.028182
    126 H52         7.3270   -0.4870    1.4540 h1        1 MOL      0.024857
    127 H53         8.4440    1.1850   -0.0970 hc        1 MOL      0.128634
    128 H54         7.6640    0.3480   -1.4210 hc        1 MOL      0.128634
    129 H55         9.5660   -0.5230    1.5880 ha        1 MOL      0.130514
    130 H56         9.0840   -0.9380   -2.6550 ha        1 MOL      0.130514
    131 H57        11.4440   -2.1530    1.6710 ha        1 MOL      0.116559
    132 H58        11.0560   -2.5300   -2.6870 ha        1 MOL      0.116559
    133 H59        12.1680   -3.1670   -0.5220 ha        1 MOL      0.108229
    134 N12         5.7460   -2.4860    0.7080 n         1 MOL     -0.127298
    135 C45         4.9770   -3.6880    0.3920 c3        1 MOL      0.075899
    136 C46         3.9700   -3.6410   -0.7330 c         1 MOL      0.318861
    137 O20         3.7680   -4.7160   -1.2790 o         1 MOL     -0.512939
    138 C47         4.4300   -4.1450    1.7510 c3        1 MOL     -0.037505
    139 C48         5.5650   -3.8410    2.7030 c3        1 MOL     -0.118153
    140 C49         6.1110   -2.5000    2.1750 c3        1 MOL     -0.037424
    141 H60         5.6290   -4.4750    0.0250 h1        1 MOL      0.058236
    142 H61         3.5880   -3.5040    2.0100 hc        1 MOL      0.053827
    143 H62         4.0380   -5.1640    1.7690 hc        1 MOL      0.053827
    144 H63         5.3920   -3.8860    3.7760 hc        1 MOL      0.046424
    145 H64         6.2720   -4.6380    2.4960 hc        1 MOL      0.046424
    146 H65         5.5240   -1.7240    2.6670 h1        1 MOL      0.071607
    147 H66         7.1690   -2.2810    2.3510 h1        1 MOL      0.071607
    148 N13         3.3840   -2.5130   -1.2280 n         1 MOL     -0.134546
    149 C50         2.3810   -2.5590   -2.3410 c3        1 MOL     -0.139171
    150 C51         2.9880   -3.0110   -3.6210 c         1 MOL      0.438183
    151 O21         2.3780   -3.5670   -4.5100 o         1 MOL     -0.547550
    152 C52         1.7980   -1.1470   -2.4040 c3        1 MOL      0.051721
    153 C53         0.8740   -0.7900   -1.2090 c3        1 MOL     -0.243029
    154 C54         1.6320   -0.5300    0.1150 c         1 MOL      0.690546
    155 O22         0.9710   -0.8670    1.1200 o         1 MOL     -0.723890
    156 O23         2.8140   -0.1000    0.1960 o         1 MOL     -0.723890
    157 H67         3.5240   -1.6490   -0.7180 hn        1 MOL      0.268616
    158 H68         1.5360   -3.2330   -2.1970 h1        1 MOL      0.138309
    159 H69         1.1750   -1.0980   -3.3000 hc        1 MOL      0.002167
    160 H70         2.6330   -0.4590   -2.4100 hc        1 MOL      0.002167
    161 H71         0.1560   -1.5770   -1.0160 hc        1 MOL      0.099214
    162 H72         0.4420    0.1770   -1.4950 hc        1 MOL      0.099214
    163 N14         4.2620   -2.7420   -3.8420 n         1 MOL     -0.109921
    164 C55         5.0040   -3.1020   -5.1020 c3        1 MOL     -0.180014
    165 H73         5.9130   -3.6450   -4.8450 h1        1 MOL      0.077729
    166 H74         4.3720   -3.7290   -5.7300 h1        1 MOL      0.077729
    167 H75         5.2660   -2.1920   -5.6430 h1        1 MOL      0.077729
    168 H76         4.8400   -2.3270   -3.1220 hn        1 MOL      0.144544
    169 Ca1         0.9010    0.0610    3.4830 Ca        1 MOL      1.774983
    170 O24         2.2160   -2.1090    4.1900 oh        1 MOL     -0.833733
    171 H77         2.1370   -2.9190    3.6810 ho        1 MOL      0.411564
    172 H78         2.7710   -2.3530    4.9400 ho        1 MOL      0.411564
    173 O25         1.3190    0.7600    6.2030 oh        1 MOL     -0.833733
    174 H79         1.1430    0.7700    7.1450 ho        1 MOL      0.411564
    175 H80         2.2600    0.8960    6.1380 ho        1 MOL      0.411564
    176 O26         0.4120    1.9380    1.3430 oh        1 MOL     -0.833733
    177 H81         0.5190    2.7070    1.9130 ho        1 MOL      0.411564
    178 H82         0.0870    2.2950    0.5240 ho        1 MOL      0.411564
@<TRIPOS>BOND
     1    1    2 1   
     2    1    4 1   
     3    1    5 1   
     4    1    6 1   
     5    2    3 2   
     6    2    7 1   
     7    7    8 1   
     8    7   15 1   
     9    8    9 1   
    10    8   11 1   
    11    8   16 1   
    12    9   10 2   
    13    9   19 1   
    14   11   12 1   
    15   11   17 1   
    16   11   18 1   
    17   12   13 1   
    18   12   14 1   
    19   19   20 1   
    20   19   24 1   
    21   20   21 1   
    22   20   23 1   
    23   20   25 1   
    24   21   22 2   
    25   21   29 1   
    26   23   26 1   
    27   23   27 1   
    28   23   28 1   
    29   29   30 1   
    30   29   37 1   
    31   30   31 1   
    32   30   33 1   
    33   30   38 1   
    34   31   32 2   
    35   31   41 1   
    36   33   34 1   
    37   33   39 1   
    38   33   40 1   
    39   34   35 1   
    40   34   36 1   
    41   41   42 1   
    42   41   45 1   
    43   42   43 1   
    44   42   46 1   
    45   42   47 1   
    46   43   44 2   
    47   43   48 1   
    48   48   49 1   
    49   48   56 1   
    50   49   50 1   
    51   49   52 1   
    52   49   57 1   
    53   50   51 2   
    54   50   62 1   
    55   52   53 1   
    56   52   58 1   
    57   52   59 1   
    58   53   54 1   
    59   53   55 2   
    60   54   60 1   
    61   54   61 1   
    62   62   63 1   
    63   62   66 1   
    64   63   64 1   
    65   63   67 1   
    66   63   68 1   
    67   64   65 2   
    68   64   69 1   
    69   69   70 1   
    70   69   76 1   
    71   70   71 1   
    72   70   73 1   
    73   70   77 1   
    74   71   72 2   
    75   71   83 1   
    76   73   74 1   
    77   73   75 1   
    78   73   78 1   
    79   74   80 1   
    80   74   81 1   
    81   74   82 1   
    82   75   79 1   
    83   83   84 1   
    84   83   91 1   
    85   84   85 1   
    86   84   87 1   
    87   84   92 1   
    88   85   86 2   
    89   85  102 1   
    90   87   88 1   
    91   87   89 1   
    92   87   93 1   
    93   88   90 1   
    94   88   94 1   
    95   88   95 1   
    96   89   96 1   
    97   89   97 1   
    98   89   98 1   
    99   90   99 1   
   100   90  100 1   
   101   90  101 1   
   102  102  103 1   
   103  102  110 1   
   104  103  104 1   
   105  103  106 1   
   106  103  111 1   
   107  104  105 2   
   108  104  114 1   
   109  106  107 1   
   110  106  112 1   
   111  106  113 1   
   112  107  108 1   
   113  107  109 1   
   114  114  115 1   
   115  114  125 1   
   116  115  116 1   
   117  115  118 1   
   118  115  126 1   
   119  116  117 2   
   120  116  134 1   
   121  118  119 1   
   122  118  127 1   
   123  118  128 1   
   124  119  120 ar  
   125  119  121 ar  
   126  120  122 ar  
   127  120  129 1   
   128  121  123 ar  
   129  121  130 1   
   130  122  124 ar  
   131  122  131 1   
   132  123  124 ar  
   133  123  132 1   
   134  124  133 1   
   135  134  135 1   
   136  134  140 1   
   137  135  136 1   
   138  135  138 1   
   139  135  141 1   
   140  136  137 2   
   141  136  148 1   
   142  138  139 1   
   143  138  142 1   
   144  138  143 1   
   145  139  140 1   
   146  139  144 1   
   147  139  145 1   
   148  140  146 1   
   149  140  147 1   
   150  148  149 1   
   151  148  157 1   
   152  149  150 1   
   153  149  152 1   
   154  149  158 1   
   155  150  151 2   
   156  150  163 1   
   157  152  153 1   
   158  152  159 1   
   159  152  160 1   
   160  153  154 1   
   161  153  161 1   
   162  153  162 1   
   163  154  155 1   
   164  154  156 1   
   165  163  164 1   
   166  163  168 1   
   167  164  165 1   
   168  164  166 1   
   169  164  167 1   
   170  170  171 1   
   171  170  172 1   
   172  173  174 1   
   173  173  175 1   
   174  176  177 1   
   175  176  178 1   
@<TRIPOS>SUBSTRUCTURE
     1 MOL         1 TEMP              0 ****  ****    0 ROOT
