@<TRIPOS>MOLECULE
MOL
  175   173     1     0     0
SMALL
resp


@<TRIPOS>ATOM
      1 C1         -5.3990    8.3060    1.5830 c3        1 MOL     -0.330984
      2 C2         -6.4170    7.6930    0.6030 c         1 MOL      0.680500
      3 O1         -6.3790    7.9510   -0.5720 o         1 MOL     -0.584079
      4 H1         -5.8670    8.4320    2.5600 hc        1 MOL      0.077577
      5 H2         -4.5390    7.6440    1.6760 hc        1 MOL      0.077577
      6 H3         -5.0720    9.2770    1.2100 hc        1 MOL      0.077577
      7 N1         -7.1810    6.6860    0.9840 n         1 MOL     -0.630026
      8 C3         -8.1150    5.9450    0.1180 c3        1 MOL      0.356350
      9 C4         -7.4430    4.9380   -0.7400 c         1 MOL      0.546789
     10 O2         -7.8560    4.8570   -1.9030 o         1 MOL     -0.540007
     11 C5         -9.1230    5.2950    1.0410 c3        1 MOL     -0.468510
     12 C6        -10.3210    4.8170    0.1900 c         1 MOL      0.775057
     13 O3        -10.9530    5.5360   -0.5860 o         1 MOL     -0.734991
     14 O4        -10.6780    3.5990    0.3220 o         1 MOL     -0.734991
     15 H4         -7.0490    6.4170    1.9440 hn        1 MOL      0.302129
     16 H5         -8.6860    6.6400   -0.4920 h1        1 MOL      0.040644
     17 H6         -9.4540    5.9580    1.8350 hc        1 MOL      0.065409
     18 H7         -8.7450    4.4580    1.6320 hc        1 MOL      0.065409
     19 N2         -6.3860    4.2570   -0.2280 n         1 MOL     -0.529193
     20 C7         -5.5470    3.2320   -0.8790 c3        1 MOL      0.364388
     21 C8         -4.8280    2.4820    0.1830 c         1 MOL      0.300234
     22 O5         -4.2290    3.1050    1.0240 o         1 MOL     -0.496396
     23 C9         -4.5410    3.8650   -1.8410 c3        1 MOL     -0.399772
     24 H8         -6.1460    4.5960    0.6880 hn        1 MOL      0.262760
     25 H9         -6.2380    2.5430   -1.3820 h1        1 MOL      0.015263
     26 H10        -4.1710    3.1560   -2.5740 hc        1 MOL      0.122831
     27 H11        -4.9850    4.7390   -2.3020 hc        1 MOL      0.122831
     28 H12        -3.6870    4.1910   -1.2430 hc        1 MOL      0.122831
     29 N3         -4.6020    1.1260    0.1410 n         1 MOL     -0.141160
     30 C10        -5.3100    0.1510   -0.7070 c3        1 MOL     -0.177091
     31 C11        -5.5500   -1.1870   -0.0180 c         1 MOL      0.542739
     32 O6         -4.6750   -1.7190    0.7070 o         1 MOL     -0.570428
     33 C12        -4.5680    0.0520   -2.0690 c3        1 MOL      0.023782
     34 C13        -3.1630   -0.3340   -2.0060 c         1 MOL      0.625037
     35 O7         -2.7680   -1.4770   -2.4340 o         1 MOL     -0.746158
     36 O8         -2.3000    0.2640   -1.3510 o         1 MOL     -0.746158
     37 H13        -4.0250    0.7800    0.8880 hn        1 MOL      0.206903
     38 H14        -6.3510    0.4850   -0.7760 h1        1 MOL      0.064081
     39 H15        -4.6590    0.9830   -2.6220 hc        1 MOL      0.003329
     40 H16        -5.0770   -0.6730   -2.6950 hc        1 MOL      0.003329
     41 N4         -6.6300   -1.8870   -0.3550 n         1 MOL     -0.406960
     42 C14        -7.1010   -3.1970    0.2400 c3        1 MOL     -0.034013
     43 C15        -7.1670   -4.1710   -0.9470 c         1 MOL      0.532451
     44 O9         -8.2630   -4.3520   -1.5140 o         1 MOL     -0.549601
     45 H17        -7.2660   -1.5000   -1.0290 hn        1 MOL      0.323115
     46 H18        -8.0320   -3.1900    0.8000 h1        1 MOL      0.092433
     47 H19        -6.4590   -3.5420    1.0520 h1        1 MOL      0.092433
     48 N5         -6.0310   -4.7920   -1.3870 n         1 MOL     -0.512169
     49 C16        -4.6190   -4.5500   -0.8930 c3        1 MOL     -0.005304
     50 C17        -4.4260   -5.0950    0.5360 c         1 MOL      0.484768
     51 O10        -4.5220   -6.2730    0.7610 o         1 MOL     -0.565058
     52 C18        -3.5830   -5.1540   -1.8920 c3        1 MOL     -0.085879
     53 C19        -2.2910   -4.4050   -1.8410 c         1 MOL      0.393841
     54 N6         -1.4620   -4.6510   -2.8290 n         1 MOL     -0.599328
     55 O11        -1.9730   -3.6320   -0.9150 o         1 MOL     -0.506673
     56 H20        -6.1180   -5.4650   -2.1290 hn        1 MOL      0.314314
     57 H21        -4.5140   -3.4660   -0.8470 h1        1 MOL      0.147431
     58 H22        -3.9820   -5.2520   -2.9020 hc        1 MOL      0.079869
     59 H23        -3.3510   -6.1740   -1.5970 hc        1 MOL      0.079869
     60 H24        -1.7650   -5.1810   -3.6290 hn        1 MOL      0.307230
     61 H25        -0.5870   -4.1610   -2.9490 hn        1 MOL      0.307230
     62 N7         -3.9450   -4.2930    1.4930 n         1 MOL     -0.185975
     63 C20        -3.5920   -4.7170    2.8320 c3        1 MOL     -0.331704
     64 C21        -2.0950   -4.8750    2.9390 c         1 MOL      0.592819
     65 O12        -1.5210   -4.7760    4.0340 o         1 MOL     -0.587883
     66 H26        -3.6580   -3.3840    1.1770 hn        1 MOL      0.240065
     67 H27        -4.1060   -5.6360    3.1280 h1        1 MOL      0.142864
     68 H28        -3.8730   -3.8970    3.4970 h1        1 MOL      0.142864
     69 N8         -1.3490   -5.0000    1.8290 n         1 MOL     -0.358406
     70 C22         0.1360   -5.2390    1.7640 c3        1 MOL     -0.048819
     71 C23         0.9390   -4.0450    1.6150 c         1 MOL      0.596997
     72 O13         0.5150   -3.0170    1.0890 o         1 MOL     -0.626996
     73 C24         0.4880   -6.3560    0.7000 c3        1 MOL      0.418200
     74 C25         0.1030   -7.6890    1.0750 c3        1 MOL     -0.277895
     75 O14         0.0330   -5.9640   -0.5630 oh        1 MOL     -0.640061
     76 H29        -1.8170   -4.8670    0.9390 hn        1 MOL      0.321596
     77 H30         0.4170   -5.5160    2.7850 h1        1 MOL      0.037469
     78 H31         1.5750   -6.3480    0.5990 h1        1 MOL     -0.022281
     79 H32         0.6880   -5.3320   -0.8630 ho        1 MOL      0.460509
     80 H33        -0.9670   -7.8630    1.1110 hc        1 MOL      0.056701
     81 H34         0.6310   -8.4270    0.4640 hc        1 MOL      0.056701
     82 H35         0.4900   -7.8470    2.0790 hc        1 MOL      0.056701
     83 N9          2.1800   -4.1120    2.0110 n         1 MOL     -0.472841
     84 C26         3.1750   -2.9370    1.9150 c3        1 MOL      0.325605
     85 C27         4.0100   -3.1380    0.6870 c         1 MOL      0.134397
     86 O15         4.8610   -4.0120    0.5780 o         1 MOL     -0.518262
     87 C28         3.9860   -2.8060    3.2810 c3        1 MOL      0.087570
     88 C29         4.9590   -1.5840    3.3820 c3        1 MOL     -0.085051
     89 C30         3.1380   -2.9590    4.5630 c3        1 MOL     -0.455131
     90 C31         4.2580   -0.2610    3.1370 c3        1 MOL     -0.233689
     91 H36         2.4470   -4.9050    2.5700 hn        1 MOL      0.273515
     92 H37         2.6190   -1.9980    1.8470 h1        1 MOL      0.043518
     93 H38         4.6090   -3.6990    3.2550 hc        1 MOL     -0.003801
     94 H39         5.8140   -1.6870    2.7170 hc        1 MOL      0.038293
     95 H40         5.4550   -1.4480    4.3360 hc        1 MOL      0.038293
     96 H41         3.7470   -2.5940    5.3900 hc        1 MOL      0.116955
     97 H42         2.3350   -2.2240    4.5880 hc        1 MOL      0.116955
     98 H43         2.8370   -3.9980    4.6950 hc        1 MOL      0.116955
     99 H44         5.0280    0.4950    2.9640 hc        1 MOL      0.079346
    100 H45         3.6490   -0.3840    2.2450 hc        1 MOL      0.079346
    101 H46         3.6000   -0.0700    3.9900 hc        1 MOL      0.079346
    102 N10         3.6660   -2.3670   -0.3510 n         1 MOL      0.076436
    103 C32         4.1880   -2.5250   -1.7430 c3        1 MOL      0.253992
    104 C33         5.1890   -1.4350   -2.2070 c         1 MOL      0.487461
    105 O16         5.3250   -1.2270   -3.4130 o         1 MOL     -0.554124
    106 C34         3.0380   -2.8560   -2.7530 c3        1 MOL     -0.294194
    107 C35         1.9130   -3.7310   -2.1650 c         1 MOL      0.810311
    108 O17         2.1340   -4.9070   -1.8030 o         1 MOL     -0.707728
    109 O18         0.7740   -3.2990   -2.0440 o         1 MOL     -0.707728
    110 H47         2.9100   -1.6970   -0.2330 hn        1 MOL     -0.030129
    111 H48         4.7560   -3.4580   -1.6770 h1        1 MOL      0.016333
    112 H49         3.4170   -3.3410   -3.6550 hc        1 MOL      0.041381
    113 H50         2.6770   -1.8990   -3.1380 hc        1 MOL      0.041381
    114 N11         5.8470   -0.6080   -1.4000 n         1 MOL     -0.659536
    115 C36         6.5660    0.6010   -1.8190 c3        1 MOL      0.710916
    116 C37         6.3460    1.8410   -0.9210 c         1 MOL      0.346315
    117 O19         5.9830    1.7270    0.2420 o         1 MOL     -0.520730
    118 C38         8.0690    0.3790   -2.0710 c3        1 MOL     -0.329543
    119 C39         9.0820    1.0580   -1.1100 ca        1 MOL      0.114693
    120 C40         9.3450    0.6210    0.1700 ca        1 MOL     -0.160609
    121 C41         9.8320    2.1410   -1.6540 ca        1 MOL     -0.160609
    122 C42        10.3130    1.2430    0.9060 ca        1 MOL     -0.041809
    123 C43        10.7920    2.7400   -0.9010 ca        1 MOL     -0.041809
    124 C44        11.1040    2.2280    0.3600 ca        1 MOL     -0.219812
    125 H51         5.6010   -0.5950   -0.4220 hn        1 MOL      0.247257
    126 H52         6.1420    0.8870   -2.7810 h1        1 MOL     -0.052667
    127 H53         8.1920    0.8230   -3.0580 hc        1 MOL      0.081166
    128 H54         8.2090   -0.6930   -2.0840 hc        1 MOL      0.081166
    129 H55         8.7490   -0.1470    0.6280 ha        1 MOL      0.120602
    130 H56         9.8650    2.4290   -2.6950 ha        1 MOL      0.120602
    131 H57        10.4400    0.9190    1.9270 ha        1 MOL      0.092488
    132 H58        11.4940    3.4440   -1.3220 ha        1 MOL      0.092488
    133 H59        11.9230    2.6260    0.9290 ha        1 MOL      0.123797
    134 N12         6.4160    3.1250   -1.3920 n         1 MOL     -0.288918
    135 C45         6.5890    4.4120   -0.5150 c3        1 MOL      0.228951
    136 C46         5.3180    4.9250    0.1430 c         1 MOL      0.307298
    137 O20         5.2940    6.0680    0.5990 o         1 MOL     -0.498660
    138 C47         7.0740    5.4520   -1.4870 c3        1 MOL     -0.361185
    139 C48         7.6250    4.7130   -2.6860 c3        1 MOL      0.195970
    140 C49         6.7040    3.4860   -2.7850 c3        1 MOL     -0.191054
    141 H60         7.2810    4.2110    0.3010 h1        1 MOL      0.072799
    142 H61         6.2400    6.0240   -1.8770 hc        1 MOL      0.131683
    143 H62         7.7520    6.1590   -1.0020 hc        1 MOL      0.131683
    144 H63         7.6210    5.3000   -3.6060 hc        1 MOL     -0.035661
    145 H64         8.6310    4.3760   -2.4710 hc        1 MOL     -0.035661
    146 H65         5.8310    3.8550   -3.3120 h1        1 MOL      0.093740
    147 H66         7.0640    2.6250   -3.3460 h1        1 MOL      0.093740
    148 N13         4.2350    4.0650    0.2550 n         1 MOL     -0.150759
    149 C50         2.9500    4.3330    0.9510 c3        1 MOL     -0.235029
    150 C51         2.9860    4.7300    2.4240 c         1 MOL      0.502157
    151 O21         2.1240    5.5010    2.9310 o         1 MOL     -0.550933
    152 C52         1.9220    3.1940    0.7270 c3        1 MOL      0.039883
    153 C53         2.4050    1.7040    1.0920 c3        1 MOL      0.007511
    154 C54         1.4010    0.7060    0.4390 c         1 MOL      0.686088
    155 O22         0.1610    0.9110    0.5130 o         1 MOL     -0.701024
    156 O23         1.7640   -0.3210   -0.1770 o         1 MOL     -0.701024
    157 H67         4.1890    3.2170   -0.2850 hn        1 MOL      0.190924
    158 H68         2.5240    5.2070    0.4660 h1        1 MOL      0.135020
    159 H69         1.5750    3.2720   -0.3070 hc        1 MOL      0.040948
    160 H70         1.0320    3.4090    1.3140 hc        1 MOL      0.040948
    161 H71         2.5690    1.5010    2.1480 hc        1 MOL     -0.042013
    162 H72         3.3470    1.5660    0.5410 hc        1 MOL     -0.042013
    163 N14         4.0410    4.3500    3.0740 n         1 MOL     -0.154652
    164 C55         4.2960    4.7040    4.4650 c3        1 MOL     -0.069455
    165 H73         3.4230    5.2080    4.8770 h1        1 MOL      0.053014
    166 H74         4.4970    3.8000    5.0390 h1        1 MOL      0.053014
    167 H75         5.1580    5.3690    4.5190 h1        1 MOL      0.053014
    168 H76         4.6420    3.7070    2.5820 hn        1 MOL      0.178019
    169 Ca1        -0.4230   -1.4210   -0.8920 Ca        1 MOL      1.700970
    170 O24         0.3470   -0.3900   -3.1350 oh        1 MOL     -0.746999
    171 H77         0.4500    0.4750   -3.5270 ho        1 MOL      0.381677
    172 H78        -0.0800   -0.9130   -3.8040 ho        1 MOL      0.381677
    173 O25        -2.1130   -1.5190    1.3680 oh        1 MOL     -0.746999
    174 H79        -3.0380   -1.3580    1.1900 ho        1 MOL      0.381677
    175 H80        -1.8330   -0.7730    1.8940 ho        1 MOL      0.381677
@<TRIPOS>BOND
     1    1    2 1   
     2    1    4 1   
     3    1    5 1   
     4    1    6 1   
     5    2    3 2   
     6    2    7 1   
     7    7    8 1   
     8    7   15 1   
     9    8    9 1   
    10    8   11 1   
    11    8   16 1   
    12    9   10 2   
    13    9   19 1   
    14   11   12 1   
    15   11   17 1   
    16   11   18 1   
    17   12   13 1   
    18   12   14 1   
    19   19   20 1   
    20   19   24 1   
    21   20   21 1   
    22   20   23 1   
    23   20   25 1   
    24   21   22 2   
    25   21   29 1   
    26   23   26 1   
    27   23   27 1   
    28   23   28 1   
    29   29   30 1   
    30   29   37 1   
    31   30   31 1   
    32   30   33 1   
    33   30   38 1   
    34   31   32 2   
    35   31   41 1   
    36   33   34 1   
    37   33   39 1   
    38   33   40 1   
    39   34   35 1   
    40   34   36 1   
    41   41   42 1   
    42   41   45 1   
    43   42   43 1   
    44   42   46 1   
    45   42   47 1   
    46   43   44 2   
    47   43   48 1   
    48   48   49 1   
    49   48   56 1   
    50   49   50 1   
    51   49   52 1   
    52   49   57 1   
    53   50   51 2   
    54   50   62 1   
    55   52   53 1   
    56   52   58 1   
    57   52   59 1   
    58   53   54 1   
    59   53   55 2   
    60   54   60 1   
    61   54   61 1   
    62   62   63 1   
    63   62   66 1   
    64   63   64 1   
    65   63   67 1   
    66   63   68 1   
    67   64   65 2   
    68   64   69 1   
    69   69   70 1   
    70   69   76 1   
    71   70   71 1   
    72   70   73 1   
    73   70   77 1   
    74   71   72 2   
    75   71   83 1   
    76   73   74 1   
    77   73   75 1   
    78   73   78 1   
    79   74   80 1   
    80   74   81 1   
    81   74   82 1   
    82   75   79 1   
    83   83   84 1   
    84   83   91 1   
    85   84   85 1   
    86   84   87 1   
    87   84   92 1   
    88   85   86 2   
    89   85  102 1   
    90   87   88 1   
    91   87   89 1   
    92   87   93 1   
    93   88   90 1   
    94   88   94 1   
    95   88   95 1   
    96   89   96 1   
    97   89   97 1   
    98   89   98 1   
    99   90   99 1   
   100   90  100 1   
   101   90  101 1   
   102  102  103 1   
   103  102  110 1   
   104  103  104 1   
   105  103  106 1   
   106  103  111 1   
   107  104  105 2   
   108  104  114 1   
   109  106  107 1   
   110  106  112 1   
   111  106  113 1   
   112  107  108 1   
   113  107  109 1   
   114  114  115 1   
   115  114  125 1   
   116  115  116 1   
   117  115  118 1   
   118  115  126 1   
   119  116  117 2   
   120  116  134 1   
   121  118  119 1   
   122  118  127 1   
   123  118  128 1   
   124  119  120 ar  
   125  119  121 ar  
   126  120  122 ar  
   127  120  129 1   
   128  121  123 ar  
   129  121  130 1   
   130  122  124 ar  
   131  122  131 1   
   132  123  124 ar  
   133  123  132 1   
   134  124  133 1   
   135  134  135 1   
   136  134  140 1   
   137  135  136 1   
   138  135  138 1   
   139  135  141 1   
   140  136  137 2   
   141  136  148 1   
   142  138  139 1   
   143  138  142 1   
   144  138  143 1   
   145  139  140 1   
   146  139  144 1   
   147  139  145 1   
   148  140  146 1   
   149  140  147 1   
   150  148  149 1   
   151  148  157 1   
   152  149  150 1   
   153  149  152 1   
   154  149  158 1   
   155  150  151 2   
   156  150  163 1   
   157  152  153 1   
   158  152  159 1   
   159  152  160 1   
   160  153  154 1   
   161  153  161 1   
   162  153  162 1   
   163  154  155 1   
   164  154  156 1   
   165  163  164 1   
   166  163  168 1   
   167  164  165 1   
   168  164  166 1   
   169  164  167 1   
   170  170  171 1   
   171  170  172 1   
   172  173  174 1   
   173  173  175 1   
@<TRIPOS>SUBSTRUCTURE
     1 MOL         1 TEMP              0 ****  ****    0 ROOT
