@<TRIPOS>MOLECULE
MOL
  189   185     1     0     0
SMALL
resp


@<TRIPOS>ATOM
      1 C1        -11.5960   -5.0470   -2.3580 c3        1 MOL     -0.585115
      2 C2        -11.2730   -3.6150   -1.7740 c         1 MOL      0.690506
      3 O1        -11.2380   -2.6440   -2.5400 o         1 MOL     -0.571735
      4 H1        -11.9680   -5.6890   -1.5600 hc        1 MOL      0.157126
      5 H2        -12.3540   -4.9600   -3.1360 hc        1 MOL      0.157126
      6 H3        -10.6890   -5.4820   -2.7800 hc        1 MOL      0.157126
      7 N1        -10.8970   -3.5280   -0.4690 n         1 MOL     -0.314885
      8 C3        -10.5270   -2.2330    0.1970 c3        1 MOL     -0.326820
      9 C4         -9.1190   -1.8040   -0.3110 c         1 MOL      0.728263
     10 O2         -8.1910   -2.5470   -0.4020 o         1 MOL     -0.649879
     11 C5        -10.5860   -2.4070    1.6920 c3        1 MOL      0.042464
     12 C6         -9.7130   -3.5130    2.2940 c         1 MOL      0.872350
     13 O3         -9.0980   -4.2950    1.5610 o         1 MOL     -0.758074
     14 O4         -9.8430   -3.7150    3.5510 o         1 MOL     -0.758074
     15 H4        -10.7390   -4.3760    0.0640 hn        1 MOL      0.148610
     16 H5        -11.2070   -1.4500   -0.1600 h1        1 MOL      0.089907
     17 H6        -11.5870   -2.7530    1.9270 hc        1 MOL      0.026005
     18 H7        -10.3470   -1.5130    2.2770 hc        1 MOL      0.026005
     19 N2         -9.0140   -0.4840   -0.5430 n         1 MOL     -0.356593
     20 C7         -7.9070    0.3090   -1.0760 c3        1 MOL     -0.100748
     21 C8         -6.8530    0.6340   -0.0090 c         1 MOL      0.716028
     22 O5         -7.1490    1.2120    1.0530 o         1 MOL     -0.608155
     23 C9         -8.5500    1.5190   -1.8770 c3        1 MOL     -0.256505
     24 C10        -9.2830    0.9720   -3.1100 c3        1 MOL      0.054594
     25 C11        -9.8170    2.0930   -4.0240 c3        1 MOL     -0.008419
     26 C12       -11.0200    2.7450   -3.3210 c3        1 MOL      0.116803
     27 N3        -11.3780    4.0770   -3.8930 n4        1 MOL     -0.367519
     28 H8         -9.8380    0.0620   -0.3280 hn        1 MOL      0.263930
     29 H9         -7.3130   -0.1920   -1.8360 h1        1 MOL      0.142479
     30 H10        -7.7680    2.2170   -2.1780 hc        1 MOL      0.089246
     31 H11        -9.3200    2.0160   -1.2900 hc        1 MOL      0.089246
     32 H12       -10.1060    0.3020   -2.8630 hc        1 MOL      0.035205
     33 H13        -8.5800    0.4450   -3.7500 hc        1 MOL      0.035205
     34 H14       -10.1300    1.7700   -5.0170 hc        1 MOL      0.016241
     35 H15        -9.1110    2.9210   -4.0880 hc        1 MOL      0.016241
     36 H16       -10.8210    2.9120   -2.2670 hx        1 MOL      0.053229
     37 H17       -11.8000    1.9880   -3.4190 hx        1 MOL      0.053229
     38 H18       -10.6070    4.7150   -3.7820 hn        1 MOL      0.287450
     39 H19       -11.5350    3.9540   -4.8770 hn        1 MOL      0.287450
     40 H20       -12.2250    4.4710   -3.4950 hn        1 MOL      0.287450
     41 N4         -5.6530    0.3360   -0.1820 n         1 MOL     -0.679968
     42 C13        -4.6720    0.2330    0.8840 c3        1 MOL      0.592954
     43 C14        -3.2200    0.1540    0.4670 c         1 MOL      0.234315
     44 O6         -2.9090   -0.1710   -0.6810 o         1 MOL     -0.513547
     45 C15        -4.9100   -0.9570    1.8410 c3        1 MOL      0.196323
     46 C16        -5.5900   -2.2640    1.2230 c         1 MOL      0.517772
     47 O7         -5.2870   -2.5920    0.0460 o         1 MOL     -0.696701
     48 O8         -6.4320   -2.8730    1.8830 o         1 MOL     -0.696701
     49 H21        -5.3680   -0.1400   -1.0320 hn        1 MOL      0.286157
     50 H22        -4.7590    1.0990    1.5420 h1        1 MOL     -0.061071
     51 H23        -5.5490   -0.5710    2.6320 hc        1 MOL     -0.051732
     52 H24        -3.9710   -1.2650    2.3030 hc        1 MOL     -0.051732
     53 N5         -2.2190    0.4300    1.2920 n         1 MOL     -0.338486
     54 C17        -2.2170    0.8350    2.6760 c3        1 MOL     -0.061849
     55 C18        -1.9680    2.3290    2.7980 c         1 MOL      0.717700
     56 O9         -2.0820    3.0720    1.8490 o         1 MOL     -0.609218
     57 H25        -1.3620    0.4750    0.7550 hn        1 MOL      0.291229
     58 H26        -1.4200    0.3670    3.2570 h1        1 MOL      0.060305
     59 H27        -3.1110    0.6150    3.2560 h1        1 MOL      0.060305
     60 N6         -1.6480    2.8720    3.9890 n         1 MOL     -0.603376
     61 C19        -1.4910    4.3780    4.1540 c3        1 MOL      0.058971
     62 C20        -0.3870    5.1390    3.4070 c         1 MOL      0.613238
     63 O10         0.7600    4.9640    3.7340 o         1 MOL     -0.541794
     64 C21        -1.4420    4.7700    5.6510 c3        1 MOL     -0.210566
     65 C22        -1.6040    6.2830    5.8640 c         1 MOL      0.646958
     66 O11        -2.0310    7.0750    4.9680 o         1 MOL     -0.612640
     67 O12        -1.2110    6.7510    6.9590 o         1 MOL     -0.612640
     68 H28        -1.7650    2.3380    4.8340 hn        1 MOL      0.306667
     69 H29        -2.3840    4.7810    3.6730 h1        1 MOL      0.015926
     70 H30        -0.5230    4.4340    6.1300 hc        1 MOL      0.082481
     71 H31        -2.2720    4.3310    6.2020 hc        1 MOL      0.082481
     72 N7         -0.8170    6.1450    2.6300 n         1 MOL     -0.252740
     73 C23         0.1730    6.8350    1.7820 c3        1 MOL     -0.106442
     74 C24         0.1970    6.1430    0.3630 c         1 MOL      0.580301
     75 O13         0.5690    6.7860   -0.6270 o         1 MOL     -0.587549
     76 H32        -1.7870    6.4040    2.5720 hn        1 MOL      0.242596
     77 H33         1.1720    6.9020    2.2110 h1        1 MOL      0.090283
     78 H34        -0.2130    7.8360    1.6150 h1        1 MOL      0.090283
     79 N8         -0.1370    4.8170    0.2480 n         1 MOL     -0.466352
     80 C25        -0.0150    3.8760   -0.9600 c3        1 MOL      0.039561
     81 C26         0.5030    2.4930   -0.4750 c         1 MOL      0.539158
     82 O14         0.5710    2.2310    0.7270 o         1 MOL     -0.498482
     83 C27        -1.2700    3.8180   -1.8110 c3        1 MOL      0.368837
     84 C28        -1.9830    5.1990   -1.9460 c3        1 MOL     -0.399514
     85 O15        -0.9830    3.3850   -3.0580 oh        1 MOL     -0.649448
     86 H35        -0.2790    4.3160    1.1080 hn        1 MOL      0.220225
     87 H36         0.7060    4.2990   -1.6570 h1        1 MOL      0.101654
     88 H37        -1.8700    2.9790   -1.4720 h1        1 MOL     -0.016803
     89 H38        -1.7940    3.0010   -3.3940 ho        1 MOL      0.416004
     90 H39        -2.8700    5.0450   -2.5610 hc        1 MOL      0.106224
     91 H40        -2.3770    5.5620   -0.9880 hc        1 MOL      0.106224
     92 H41        -1.3400    5.8720   -2.5100 hc        1 MOL      0.106224
     93 N9          0.8540    1.6470   -1.4590 n         1 MOL     -0.497613
     94 C29         1.6160    0.4330   -1.2340 c3        1 MOL      0.107750
     95 C30         3.1960    0.6810   -1.2950 c         1 MOL      0.490148
     96 O16         3.9080    0.1740   -0.4510 o         1 MOL     -0.489152
     97 C31         1.1010   -0.7570   -2.0680 c3        1 MOL      0.085871
     98 C32         1.5510   -2.0920   -1.4570 c3        1 MOL      0.219641
     99 C33         1.3970   -0.5710   -3.5720 c3        1 MOL     -0.374510
    100 C34         0.7180   -2.4980   -0.2470 c3        1 MOL     -0.645549
    101 H42         0.4730    1.8090   -2.3780 hn        1 MOL      0.261679
    102 H43         1.5320    0.1480   -0.1780 h1        1 MOL      0.105227
    103 H44         0.0110   -0.7590   -2.0030 hc        1 MOL      0.019965
    104 H45         2.5470   -1.9060   -1.0470 hc        1 MOL     -0.028132
    105 H46         1.6990   -2.8700   -2.1980 hc        1 MOL     -0.028132
    106 H47         0.9410    0.3440   -3.9520 hc        1 MOL      0.085546
    107 H48         2.4620   -0.4990   -3.7700 hc        1 MOL      0.085546
    108 H49         1.0260   -1.4660   -4.0610 hc        1 MOL      0.085546
    109 H50         0.2360   -1.6150    0.1770 hc        1 MOL      0.172399
    110 H51        -0.0410   -3.2170   -0.5700 hc        1 MOL      0.172399
    111 H52         1.3580   -3.1100    0.3850 hc        1 MOL      0.172399
    112 N10         3.7070    1.6330   -2.0950 n         1 MOL     -0.433478
    113 C35         4.9800    2.3180   -1.9380 c3        1 MOL      0.045906
    114 C36         6.0350    1.7830   -2.9140 c         1 MOL      0.684372
    115 O17         5.7170    1.4070   -4.0350 o         1 MOL     -0.551005
    116 C37         4.8180    3.8450   -1.9020 c3        1 MOL      0.181694
    117 C38         3.8560    4.4850   -0.9260 c3        1 MOL     -0.252302
    118 O18         6.1270    4.3940   -1.4540 oh        1 MOL     -0.611537
    119 H53         3.0620    2.0090   -2.7800 hn        1 MOL      0.252610
    120 H54         5.3830    1.9860   -0.9890 h1        1 MOL      0.132448
    121 H55         4.5030    4.1360   -2.9000 h1        1 MOL      0.020444
    122 H56         6.2080    5.3060   -1.7510 ho        1 MOL      0.384350
    123 H57         3.5240    5.4940   -1.1700 hc        1 MOL      0.094490
    124 H58         2.8920    3.9810   -0.9470 hc        1 MOL      0.094490
    125 H59         4.3600    4.5380    0.0290 hc        1 MOL      0.094490
    126 N11         7.2810    1.7770   -2.4170 n         1 MOL     -0.832789
    127 C39         8.4590    1.1330   -3.0530 c3        1 MOL      0.433615
    128 C40         8.7300   -0.2640   -2.6000 c         1 MOL      0.655877
    129 O19         8.7750   -1.1230   -3.4330 o         1 MOL     -0.593597
    130 C41         9.7090    2.0270   -2.9480 c3        1 MOL      0.253188
    131 C42        10.9930    1.6480   -3.6830 c3        1 MOL     -0.215927
    132 O20        10.2590    2.1680   -1.6700 oh        1 MOL     -0.632939
    133 H60         7.3380    2.1940   -1.4920 hn        1 MOL      0.327587
    134 H61         8.3000    0.9730   -4.1170 h1        1 MOL     -0.009362
    135 H62         9.2810    2.9340   -3.3770 h1        1 MOL      0.009807
    136 H63        10.2460    3.1170   -1.5540 ho        1 MOL      0.402175
    137 H64        11.0620    0.5720   -3.8130 hc        1 MOL      0.039949
    138 H65        10.7620    1.9290   -4.7110 hc        1 MOL      0.039949
    139 H66        11.8780    2.2310   -3.4210 hc        1 MOL      0.039949
    140 N12         8.8580   -0.5000   -1.2900 n         1 MOL     -0.519826
    141 C43         9.0350   -1.8330   -0.6530 c3        1 MOL      0.243181
    142 C44         7.9250   -2.1230    0.3900 c         1 MOL      0.461878
    143 O21         7.1490   -1.2180    0.6990 o         1 MOL     -0.483804
    144 C45        10.4320   -1.8550    0.0040 c3        1 MOL     -0.189212
    145 C46        11.6040   -1.8250   -0.9730 c3        1 MOL      0.041191
    146 C47        12.8800   -2.5110   -0.5030 c3        1 MOL      0.032845
    147 C48        13.6400   -1.8770    0.7160 c3        1 MOL     -0.008365
    148 N13        14.3810   -0.6260    0.5790 n4        1 MOL     -0.212667
    149 H67         9.0010    0.2830   -0.6730 hn        1 MOL      0.255321
    150 H68         9.0540   -2.6120   -1.4140 h1        1 MOL      0.041338
    151 H69        10.4080   -2.7610    0.6170 hc        1 MOL      0.050413
    152 H70        10.5640   -1.0140    0.6810 hc        1 MOL      0.050413
    153 H71        11.9040   -0.8040   -1.2190 hc        1 MOL      0.005684
    154 H72        11.3480   -2.2420   -1.9510 hc        1 MOL      0.005684
    155 H73        13.6050   -2.4730   -1.3270 hc        1 MOL      0.024509
    156 H74        12.7510   -3.5700   -0.3070 hc        1 MOL      0.024509
    157 H75        14.2050   -2.7430    1.0550 hx        1 MOL      0.076586
    158 H76        12.8220   -1.6790    1.4000 hx        1 MOL      0.076586
    159 H77        13.8030    0.2000    0.5460 hn        1 MOL      0.250854
    160 H78        15.0340   -0.4620    1.3340 hn        1 MOL      0.250854
    161 H79        14.9040   -0.5560   -0.2800 hn        1 MOL      0.250854
    162 N14         7.8100   -3.4140    0.6940 n         1 MOL     -0.562932
    163 C49         6.8600   -3.8750    1.6590 c3        1 MOL      0.317270
    164 C50         5.4180   -3.9700    1.1160 c         1 MOL      0.453319
    165 O22         4.4670   -3.5700    1.8070 o         1 MOL     -0.521731
    166 C51         7.3670   -5.2070    2.2450 c3        1 MOL     -0.140810
    167 C52         6.4820   -5.3790    3.5330 c3        1 MOL     -0.127182
    168 C53         7.0400   -6.5220    4.3400 c         1 MOL      0.678041
    169 O23         7.7550   -6.1510    5.3110 o         1 MOL     -0.644626
    170 O24         6.8390   -7.7290    3.9980 o         1 MOL     -0.644626
    171 H80         8.4820   -4.0400    0.2650 hn        1 MOL      0.288237
    172 H81         6.7300   -3.1250    2.4390 h1        1 MOL      0.041252
    173 H82         8.4040   -5.0360    2.5320 hc        1 MOL      0.044409
    174 H83         7.3100   -5.9630    1.4600 hc        1 MOL      0.044409
    175 H84         5.4530   -5.4840    3.2080 hc        1 MOL      0.034663
    176 H85         6.4730   -4.4920    4.1590 hc        1 MOL      0.034663
    177 N15         5.0790   -4.3790   -0.1640 n         1 MOL     -0.383126
    178 C54         5.8600   -5.2600   -1.0650 c3        1 MOL     -0.141512
    179 H86         5.3670   -6.2290   -1.1420 h1        1 MOL      0.078667
    180 H87         5.9230   -4.8060   -2.0530 h1        1 MOL      0.078667
    181 H88         6.8640   -5.3950   -0.6620 h1        1 MOL      0.078667
    182 H89         4.1250   -4.2250   -0.4550 hn        1 MOL      0.301021
    183 Ca1        -6.9500   -4.7620    0.1630 Ca        1 MOL      1.504487
    184 O25        -4.3820   -5.1630   -1.3650 oh        1 MOL     -0.589042
    185 H90        -3.5480   -5.2100   -0.8870 ho        1 MOL      0.288388
    186 H91        -4.7250   -6.0490   -1.3140 ho        1 MOL      0.288388
    187 O26        -7.0600   -4.8900   -2.7240 oh        1 MOL     -0.589042
    188 H92        -7.5180   -5.2420   -3.4930 ho        1 MOL      0.288388
    189 H93        -6.4390   -5.5690   -2.4850 ho        1 MOL      0.288388
@<TRIPOS>BOND
     1    1    2 1   
     2    1    4 1   
     3    1    5 1   
     4    1    6 1   
     5    2    3 2   
     6    2    7 1   
     7    7    8 1   
     8    7   15 1   
     9    8    9 1   
    10    8   11 1   
    11    8   16 1   
    12    9   10 2   
    13    9   19 1   
    14   11   12 1   
    15   11   17 1   
    16   11   18 1   
    17   12   13 1   
    18   12   14 1   
    19   19   20 1   
    20   19   28 1   
    21   20   21 1   
    22   20   23 1   
    23   20   29 1   
    24   21   22 2   
    25   21   41 1   
    26   23   24 1   
    27   23   30 1   
    28   23   31 1   
    29   24   25 1   
    30   24   32 1   
    31   24   33 1   
    32   25   26 1   
    33   25   34 1   
    34   25   35 1   
    35   26   27 1   
    36   26   36 1   
    37   26   37 1   
    38   27   38 1   
    39   27   39 1   
    40   27   40 1   
    41   41   42 1   
    42   41   49 1   
    43   42   43 1   
    44   42   45 1   
    45   42   50 1   
    46   43   44 2   
    47   43   53 1   
    48   45   46 1   
    49   45   51 1   
    50   45   52 1   
    51   46   47 1   
    52   46   48 1   
    53   53   54 1   
    54   53   57 1   
    55   54   55 1   
    56   54   58 1   
    57   54   59 1   
    58   55   56 2   
    59   55   60 1   
    60   60   61 1   
    61   60   68 1   
    62   61   62 1   
    63   61   64 1   
    64   61   69 1   
    65   62   63 2   
    66   62   72 1   
    67   64   65 1   
    68   64   70 1   
    69   64   71 1   
    70   65   66 1   
    71   65   67 1   
    72   72   73 1   
    73   72   76 1   
    74   73   74 1   
    75   73   77 1   
    76   73   78 1   
    77   74   75 2   
    78   74   79 1   
    79   79   80 1   
    80   79   86 1   
    81   80   81 1   
    82   80   83 1   
    83   80   87 1   
    84   81   82 2   
    85   81   93 1   
    86   83   84 1   
    87   83   85 1   
    88   83   88 1   
    89   84   90 1   
    90   84   91 1   
    91   84   92 1   
    92   85   89 1   
    93   93   94 1   
    94   93  101 1   
    95   94   95 1   
    96   94   97 1   
    97   94  102 1   
    98   95   96 2   
    99   95  112 1   
   100   97   98 1   
   101   97   99 1   
   102   97  103 1   
   103   98  100 1   
   104   98  104 1   
   105   98  105 1   
   106   99  106 1   
   107   99  107 1   
   108   99  108 1   
   109  100  109 1   
   110  100  110 1   
   111  100  111 1   
   112  112  113 1   
   113  112  119 1   
   114  113  114 1   
   115  113  116 1   
   116  113  120 1   
   117  114  115 2   
   118  114  126 1   
   119  116  117 1   
   120  116  118 1   
   121  116  121 1   
   122  117  123 1   
   123  117  124 1   
   124  117  125 1   
   125  118  122 1   
   126  126  127 1   
   127  126  133 1   
   128  127  128 1   
   129  127  130 1   
   130  127  134 1   
   131  128  129 2   
   132  128  140 1   
   133  130  131 1   
   134  130  132 1   
   135  130  135 1   
   136  131  137 1   
   137  131  138 1   
   138  131  139 1   
   139  132  136 1   
   140  140  141 1   
   141  140  149 1   
   142  141  142 1   
   143  141  144 1   
   144  141  150 1   
   145  142  143 2   
   146  142  162 1   
   147  144  145 1   
   148  144  151 1   
   149  144  152 1   
   150  145  146 1   
   151  145  153 1   
   152  145  154 1   
   153  146  147 1   
   154  146  155 1   
   155  146  156 1   
   156  147  148 1   
   157  147  157 1   
   158  147  158 1   
   159  148  159 1   
   160  148  160 1   
   161  148  161 1   
   162  162  163 1   
   163  162  171 1   
   164  163  164 1   
   165  163  166 1   
   166  163  172 1   
   167  164  165 2   
   168  164  177 1   
   169  166  167 1   
   170  166  173 1   
   171  166  174 1   
   172  167  168 1   
   173  167  175 1   
   174  167  176 1   
   175  168  169 1   
   176  168  170 1   
   177  177  178 1   
   178  177  182 1   
   179  178  179 1   
   180  178  180 1   
   181  178  181 1   
   182  184  185 1   
   183  184  186 1   
   184  187  188 1   
   185  187  189 1   
@<TRIPOS>SUBSTRUCTURE
     1 MOL         1 TEMP              0 ****  ****    0 ROOT
