@<TRIPOS>MOLECULE
MOL
  189   185     1     0     0
SMALL
resp


@<TRIPOS>ATOM
      1 C1          5.3790    6.4850   -2.9220 c3        1 MOL     -0.274246
      2 C2          5.1830    4.9940   -2.4990 c         1 MOL      0.619086
      3 O1          5.1470    4.0740   -3.3180 o         1 MOL     -0.569807
      4 H1          5.0590    6.6140   -3.9550 hc        1 MOL      0.069644
      5 H2          4.7830    7.1290   -2.2740 hc        1 MOL      0.069644
      6 H3          6.4320    6.7540   -2.8320 hc        1 MOL      0.069644
      7 N1          5.1930    4.7790   -1.1840 n         1 MOL     -0.413179
      8 C3          5.0390    3.4650   -0.5160 c3        1 MOL     -0.047705
      9 C4          3.5510    3.1440   -0.1830 c         1 MOL      0.438133
     10 O2          3.2270    2.1430    0.5310 o         1 MOL     -0.480529
     11 C5          5.9750    3.3480    0.7260 c3        1 MOL     -0.295057
     12 C6          5.9110    4.5360    1.6700 c         1 MOL      0.758101
     13 O3          5.6820    4.2170    2.9000 o         1 MOL     -0.715644
     14 O4          6.3000    5.6710    1.3790 o         1 MOL     -0.715644
     15 H4          5.5250    5.5530   -0.6230 hn        1 MOL      0.276758
     16 H5          5.4430    2.7390   -1.2070 h1        1 MOL      0.155699
     17 H6          6.9950    3.1370    0.4110 hc        1 MOL      0.095101
     18 H7          5.6450    2.3950    1.1420 hc        1 MOL      0.095101
     19 N2          2.5600    3.9690   -0.5980 n         1 MOL     -0.283767
     20 C7          1.0940    3.8490   -0.3160 c3        1 MOL      0.311518
     21 C8          0.1470    3.6270   -1.4510 c         1 MOL      0.498764
     22 O5          0.3540    4.2440   -2.5130 o         1 MOL     -0.558900
     23 C9          0.5920    5.1290    0.5090 c3        1 MOL     -0.238440
     24 C10         1.3350    5.3420    1.8840 c3        1 MOL      0.237827
     25 C11         0.7950    6.4980    2.7610 c3        1 MOL     -0.018751
     26 C12        -0.5830    6.2050    3.3410 c3        1 MOL      0.042658
     27 N3         -0.7410    4.9620    4.1620 n4        1 MOL     -0.467795
     28 H8          2.8370    4.8090   -1.0760 hn        1 MOL      0.176633
     29 H9          1.0670    3.0170    0.3880 h1        1 MOL     -0.043891
     30 H10        -0.4730    5.2620    0.6690 hc        1 MOL      0.058097
     31 H11         0.7970    5.9580   -0.1730 hc        1 MOL      0.058097
     32 H12         2.3720    5.5110    1.5890 hc        1 MOL     -0.057213
     33 H13         1.3090    4.4830    2.5510 hc        1 MOL     -0.057213
     34 H14         0.7310    7.4250    2.1920 hc        1 MOL      0.031916
     35 H15         1.5910    6.6020    3.5060 hc        1 MOL      0.031916
     36 H16        -1.1670    6.0760    2.4300 hx        1 MOL      0.077652
     37 H17        -0.9570    7.0950    3.8440 hx        1 MOL      0.077652
     38 H18        -0.2250    4.1770    3.7970 hn        1 MOL      0.354499
     39 H19        -0.4330    5.1170    5.1120 hn        1 MOL      0.354499
     40 H20        -1.7230    4.7180    4.1460 hn        1 MOL      0.354499
     41 N4         -0.9130    2.8020   -1.4080 n         1 MOL     -0.425403
     42 C13        -1.4540    1.9200   -0.3580 c3        1 MOL      0.119868
     43 C14        -1.8300    2.6410    0.9200 c         1 MOL      0.400739
     44 O6         -1.0350    2.5860    1.8130 o         1 MOL     -0.611059
     45 C15        -0.6730    0.5920   -0.1330 c3        1 MOL      0.087771
     46 C16        -0.1440   -0.0980   -1.4040 c         1 MOL      0.717854
     47 O7          1.0930   -0.2270   -1.6440 o         1 MOL     -0.792646
     48 O8         -0.9530   -0.5590   -2.2920 o         1 MOL     -0.792646
     49 H21        -1.4700    2.6760   -2.2470 hn        1 MOL      0.297166
     50 H22        -2.4420    1.6840   -0.7580 h1        1 MOL      0.013909
     51 H23        -1.2650   -0.0770    0.4980 hc        1 MOL      0.012307
     52 H24         0.2460    0.7730    0.4100 hc        1 MOL      0.012307
     53 N5         -2.9110    3.3750    0.9310 n         1 MOL     -0.248381
     54 C17        -4.0340    3.5060   -0.1220 c3        1 MOL     -0.148722
     55 C18        -4.8560    4.8300    0.0630 c         1 MOL      0.617113
     56 O9         -4.3620    5.7410    0.7310 o         1 MOL     -0.566365
     57 H25        -2.9570    3.9310    1.7750 hn        1 MOL      0.233409
     58 H26        -4.6740    2.6470    0.0720 h1        1 MOL      0.081388
     59 H27        -3.6550    3.5550   -1.1420 h1        1 MOL      0.081388
     60 N6         -6.0530    4.9710   -0.6240 n         1 MOL     -0.518175
     61 C19        -6.6970    4.0510   -1.5920 c3        1 MOL      0.160996
     62 C20        -7.2910    2.7700   -0.9150 c         1 MOL      0.574777
     63 O10        -7.5080    2.8070    0.2770 o         1 MOL     -0.480333
     64 C21        -7.7420    4.8300   -2.2380 c3        1 MOL     -0.244932
     65 C22        -8.9950    5.1420   -1.3450 c         1 MOL      0.681104
     66 O11        -9.9420    4.3320   -1.5080 o         1 MOL     -0.674192
     67 O12        -8.8830    6.0780   -0.5230 o         1 MOL     -0.674192
     68 H28        -6.3900    5.9210   -0.7190 hn        1 MOL      0.331142
     69 H29        -5.9920    3.7260   -2.3480 h1        1 MOL     -0.011307
     70 H30        -7.9300    4.2480   -3.1440 hc        1 MOL      0.024793
     71 H31        -7.2820    5.7790   -2.5240 hc        1 MOL      0.024793
     72 N7         -7.5420    1.7000   -1.6510 n         1 MOL     -0.467632
     73 C23        -8.4070    0.6310   -1.1860 c3        1 MOL     -0.005767
     74 C24        -7.5730   -0.6100   -0.9260 c         1 MOL      0.488116
     75 O13        -8.0400   -1.6540   -0.4380 o         1 MOL     -0.549045
     76 H32        -7.4010    1.8230   -2.6430 hn        1 MOL      0.300234
     77 H33        -9.1570    0.3760   -1.9410 h1        1 MOL      0.110579
     78 H34        -8.9680    0.8540   -0.2880 h1        1 MOL      0.110579
     79 N8         -6.3190   -0.6220   -1.4490 n         1 MOL     -0.390457
     80 C25        -5.3780   -1.6970   -1.2410 c3        1 MOL     -0.008587
     81 C26        -5.1310   -1.8800    0.2260 c         1 MOL      0.623885
     82 O14        -4.6470   -1.0160    0.9590 o         1 MOL     -0.539184
     83 C27        -4.1080   -1.5720   -1.9600 c3        1 MOL      0.247044
     84 C28        -4.2190   -1.6370   -3.4720 c3        1 MOL     -0.159186
     85 O15        -3.1240   -2.4940   -1.5340 oh        1 MOL     -0.692744
     86 H35        -6.0020    0.2880   -1.7600 hn        1 MOL      0.187901
     87 H36        -5.8410   -2.5930   -1.6360 h1        1 MOL      0.092808
     88 H37        -3.7210   -0.5790   -1.7310 h1        1 MOL      0.046103
     89 H38        -2.7900   -2.9290   -2.3310 ho        1 MOL      0.386535
     90 H39        -4.9240   -0.8680   -3.7720 hc        1 MOL      0.041088
     91 H40        -3.2920   -1.6120   -4.0500 hc        1 MOL      0.041088
     92 H41        -4.6660   -2.5980   -3.7170 hc        1 MOL      0.041088
     93 N9         -5.1240   -3.1160    0.6650 n         1 MOL     -0.420306
     94 C29        -4.6810   -3.4950    2.0050 c3        1 MOL     -0.073054
     95 C30        -3.5240   -4.5540    2.0030 c         1 MOL      0.446393
     96 O16        -3.4000   -5.4590    2.8260 o         1 MOL     -0.498919
     97 C31        -5.8680   -3.9460    2.7640 c3        1 MOL      0.401551
     98 C32        -6.6540   -5.1010    2.2060 c3        1 MOL     -0.096019
     99 C33        -6.6770   -2.6530    3.0750 c3        1 MOL     -0.487097
    100 C34        -7.5240   -5.7710    3.2420 c3        1 MOL     -0.060612
    101 H42        -5.5660   -3.8190    0.0990 hn        1 MOL      0.201611
    102 H43        -4.2510   -2.5900    2.4270 h1        1 MOL      0.115511
    103 H44        -5.5110   -4.2710    3.7400 hc        1 MOL     -0.060701
    104 H45        -5.9880   -5.8370    1.7540 hc        1 MOL      0.038787
    105 H46        -7.3810   -4.7270    1.4830 hc        1 MOL      0.038787
    106 H47        -7.0440   -2.1330    2.1880 hc        1 MOL      0.121269
    107 H48        -7.5440   -2.9480    3.6670 hc        1 MOL      0.121269
    108 H49        -5.9280   -2.0290    3.5790 hc        1 MOL      0.121269
    109 H50        -8.1220   -5.0530    3.8000 hc        1 MOL      0.016402
    110 H51        -8.2020   -6.4880    2.7730 hc        1 MOL      0.016402
    111 H52        -7.0130   -6.3200    4.0300 hc        1 MOL      0.016402
    112 N10        -2.5780   -4.3780    0.9960 n         1 MOL     -0.475094
    113 C35        -1.3280   -5.1570    0.9900 c3        1 MOL      0.000310
    114 C36        -0.1770   -4.1420    0.6500 c         1 MOL      0.514944
    115 O17        -0.2190   -3.5590   -0.3840 o         1 MOL     -0.675851
    116 C37        -1.4140   -6.2810   -0.0310 c3        1 MOL      0.297875
    117 C38        -2.4590   -7.2440    0.4100 c3        1 MOL     -0.321939
    118 O18        -0.1750   -7.0060    0.0060 oh        1 MOL     -0.566272
    119 H53        -2.7540   -3.7230    0.2580 hn        1 MOL      0.378077
    120 H54        -1.0040   -5.5680    1.9530 h1        1 MOL      0.146524
    121 H55        -1.8310   -5.8630   -0.9510 h1        1 MOL     -0.022361
    122 H56        -0.1860   -7.4960   -0.8280 ho        1 MOL      0.361010
    123 H57        -3.4710   -6.8270    0.3400 hc        1 MOL      0.088194
    124 H58        -2.4170   -8.0920   -0.2700 hc        1 MOL      0.088194
    125 H59        -2.4100   -7.4410    1.4830 hc        1 MOL      0.088194
    126 N11         0.6690   -3.7870    1.6120 n         1 MOL     -0.439887
    127 C39         1.5450   -2.5780    1.5760 c3        1 MOL      0.064072
    128 C40         3.0380   -3.0450    1.8640 c         1 MOL      0.706134
    129 O19         3.1530   -3.9450    2.6960 o         1 MOL     -0.538253
    130 C41         0.9580   -1.6000    2.6210 c3        1 MOL      0.380521
    131 C42         1.7980   -0.3260    2.8780 c3        1 MOL     -0.309092
    132 O20         0.6850   -2.1670    3.8750 oh        1 MOL     -0.645048
    133 H60         0.5680   -4.3180    2.4610 hn        1 MOL      0.280036
    134 H61         1.5690   -2.0710    0.6050 h1        1 MOL      0.011495
    135 H62        -0.0450   -1.3320    2.2960 h1        1 MOL     -0.002304
    136 H63        -0.2350   -1.9840    4.0890 ho        1 MOL      0.402656
    137 H64         2.0750    0.0540    1.8960 hc        1 MOL      0.074681
    138 H65         1.1790    0.4210    3.3610 hc        1 MOL      0.074681
    139 H66         2.5970   -0.5460    3.5880 hc        1 MOL      0.074681
    140 N12         4.1180   -2.4060    1.3090 n         1 MOL     -0.589454
    141 C43         5.5440   -2.7820    1.4310 c3        1 MOL      0.036513
    142 C44         6.3670   -2.6620    0.1600 c         1 MOL      0.549947
    143 O21         7.5390   -3.0820    0.1190 o         1 MOL     -0.568613
    144 C45         6.1050   -1.9890    2.5290 c3        1 MOL     -0.340966
    145 C46         6.3500   -0.4720    2.1870 c3        1 MOL      0.178259
    146 C47         6.7840    0.4400    3.3540 c3        1 MOL     -0.313375
    147 C48         5.8470    0.5590    4.5520 c3        1 MOL      0.175503
    148 N13         6.5870    0.9980    5.7200 n4        1 MOL     -0.406576
    149 H67         3.9600   -1.5630    0.7730 hn        1 MOL      0.315949
    150 H68         5.6270   -3.8170    1.7510 h1        1 MOL      0.146547
    151 H69         7.0550   -2.4220    2.8490 hc        1 MOL      0.103048
    152 H70         5.3770   -2.1050    3.3220 hc        1 MOL      0.103048
    153 H71         5.4360   -0.0040    1.8250 hc        1 MOL      0.014990
    154 H72         7.0960   -0.3890    1.3890 hc        1 MOL      0.014990
    155 H73         6.9470    1.4530    2.9820 hc        1 MOL      0.097513
    156 H74         7.7390    0.0150    3.6640 hc        1 MOL      0.097513
    157 H75         5.4300   -0.4290    4.7740 hx        1 MOL      0.053004
    158 H76         4.9750    1.1860    4.3460 hx        1 MOL      0.053004
    159 H77         6.8270    1.9790    5.7890 hn        1 MOL      0.329523
    160 H78         6.1070    0.7880    6.5890 hn        1 MOL      0.329523
    161 H79         7.4850    0.5240    5.7290 hn        1 MOL      0.329523
    162 N14         5.7320   -2.2610   -0.9130 n         1 MOL     -0.282558
    163 C49         6.5170   -2.0250   -2.1180 c3        1 MOL      0.045820
    164 C50         7.3940   -0.7230   -2.1340 c         1 MOL      0.319620
    165 O22         6.9910    0.3040   -1.5370 o         1 MOL     -0.468525
    166 C51         5.6230   -2.0740   -3.3090 c3        1 MOL     -0.156304
    167 C52         4.9410   -3.3870   -3.5410 c3        1 MOL     -0.300201
    168 C53         3.9060   -3.7370   -2.4700 c         1 MOL      0.732577
    169 O23         2.9540   -2.9270   -2.3380 o         1 MOL     -0.722715
    170 O24         3.8360   -4.8770   -1.9160 o         1 MOL     -0.722715
    171 H80         4.8030   -1.8650   -0.8140 hn        1 MOL      0.287962
    172 H81         7.2270   -2.8470   -2.1840 h1        1 MOL      0.078699
    173 H82         6.2410   -1.9280   -4.1930 hc        1 MOL      0.075768
    174 H83         4.8370   -1.3230   -3.2100 hc        1 MOL      0.075768
    175 H84         5.8010   -4.0540   -3.5040 hc        1 MOL      0.092141
    176 H85         4.4590   -3.5740   -4.5090 hc        1 MOL      0.092141
    177 N15         8.5850   -0.6850   -2.7580 n         1 MOL     -0.234801
    178 C54         9.6180    0.3250   -2.8020 c3        1 MOL     -0.084295
    179 H86         9.1820    1.3000   -2.5830 h1        1 MOL      0.077324
    180 H87        10.3840    0.0960   -2.0620 h1        1 MOL      0.077324
    181 H88        10.0650    0.3430   -3.7960 h1        1 MOL      0.077324
    182 H89         8.8150   -1.5410   -3.2440 hn        1 MOL      0.231756
    183 Ca1         0.4350   -2.6200   -2.9050 Ca        1 MOL      1.774641
    184 O25         0.8830   -3.5950   -5.2190 oh        1 MOL     -0.939867
    185 H90         1.3320   -4.4280   -5.3410 ho        1 MOL      0.461043
    186 H91         0.3650   -3.4650   -6.0120 ho        1 MOL      0.461043
    187 O26         1.0300   -5.2010   -2.7860 oh        1 MOL     -0.939867
    188 H92         1.8570   -5.2720   -2.3120 ho        1 MOL      0.461043
    189 H93         0.7240   -6.1120   -2.8570 ho        1 MOL      0.461043
@<TRIPOS>BOND
     1    1    2 1   
     2    1    4 1   
     3    1    5 1   
     4    1    6 1   
     5    2    3 2   
     6    2    7 1   
     7    7    8 1   
     8    7   15 1   
     9    8    9 1   
    10    8   11 1   
    11    8   16 1   
    12    9   10 2   
    13    9   19 1   
    14   11   12 1   
    15   11   17 1   
    16   11   18 1   
    17   12   13 1   
    18   12   14 1   
    19   19   20 1   
    20   19   28 1   
    21   20   21 1   
    22   20   23 1   
    23   20   29 1   
    24   21   22 2   
    25   21   41 1   
    26   23   24 1   
    27   23   30 1   
    28   23   31 1   
    29   24   25 1   
    30   24   32 1   
    31   24   33 1   
    32   25   26 1   
    33   25   34 1   
    34   25   35 1   
    35   26   27 1   
    36   26   36 1   
    37   26   37 1   
    38   27   38 1   
    39   27   39 1   
    40   27   40 1   
    41   41   42 1   
    42   41   49 1   
    43   42   43 1   
    44   42   45 1   
    45   42   50 1   
    46   43   44 2   
    47   43   53 1   
    48   45   46 1   
    49   45   51 1   
    50   45   52 1   
    51   46   47 1   
    52   46   48 1   
    53   53   54 1   
    54   53   57 1   
    55   54   55 1   
    56   54   58 1   
    57   54   59 1   
    58   55   56 2   
    59   55   60 1   
    60   60   61 1   
    61   60   68 1   
    62   61   62 1   
    63   61   64 1   
    64   61   69 1   
    65   62   63 2   
    66   62   72 1   
    67   64   65 1   
    68   64   70 1   
    69   64   71 1   
    70   65   66 1   
    71   65   67 1   
    72   72   73 1   
    73   72   76 1   
    74   73   74 1   
    75   73   77 1   
    76   73   78 1   
    77   74   75 2   
    78   74   79 1   
    79   79   80 1   
    80   79   86 1   
    81   80   81 1   
    82   80   83 1   
    83   80   87 1   
    84   81   82 2   
    85   81   93 1   
    86   83   84 1   
    87   83   85 1   
    88   83   88 1   
    89   84   90 1   
    90   84   91 1   
    91   84   92 1   
    92   85   89 1   
    93   93   94 1   
    94   93  101 1   
    95   94   95 1   
    96   94   97 1   
    97   94  102 1   
    98   95   96 2   
    99   95  112 1   
   100   97   98 1   
   101   97   99 1   
   102   97  103 1   
   103   98  100 1   
   104   98  104 1   
   105   98  105 1   
   106   99  106 1   
   107   99  107 1   
   108   99  108 1   
   109  100  109 1   
   110  100  110 1   
   111  100  111 1   
   112  112  113 1   
   113  112  119 1   
   114  113  114 1   
   115  113  116 1   
   116  113  120 1   
   117  114  115 2   
   118  114  126 1   
   119  116  117 1   
   120  116  118 1   
   121  116  121 1   
   122  117  123 1   
   123  117  124 1   
   124  117  125 1   
   125  118  122 1   
   126  126  127 1   
   127  126  133 1   
   128  127  128 1   
   129  127  130 1   
   130  127  134 1   
   131  128  129 2   
   132  128  140 1   
   133  130  131 1   
   134  130  132 1   
   135  130  135 1   
   136  131  137 1   
   137  131  138 1   
   138  131  139 1   
   139  132  136 1   
   140  140  141 1   
   141  140  149 1   
   142  141  142 1   
   143  141  144 1   
   144  141  150 1   
   145  142  143 2   
   146  142  162 1   
   147  144  145 1   
   148  144  151 1   
   149  144  152 1   
   150  145  146 1   
   151  145  153 1   
   152  145  154 1   
   153  146  147 1   
   154  146  155 1   
   155  146  156 1   
   156  147  148 1   
   157  147  157 1   
   158  147  158 1   
   159  148  159 1   
   160  148  160 1   
   161  148  161 1   
   162  162  163 1   
   163  162  171 1   
   164  163  164 1   
   165  163  166 1   
   166  163  172 1   
   167  164  165 2   
   168  164  177 1   
   169  166  167 1   
   170  166  173 1   
   171  166  174 1   
   172  167  168 1   
   173  167  175 1   
   174  167  176 1   
   175  168  169 1   
   176  168  170 1   
   177  177  178 1   
   178  177  182 1   
   179  178  179 1   
   180  178  180 1   
   181  178  181 1   
   182  184  185 1   
   183  184  186 1   
   184  187  188 1   
   185  187  189 1   
@<TRIPOS>SUBSTRUCTURE
     1 MOL         1 TEMP              0 ****  ****    0 ROOT
