@<TRIPOS>MOLECULE
MOL
  185   180     1     0     0
SMALL
resp


@<TRIPOS>ATOM
      1 C1         -5.4060    1.5550   -3.8340 c3        1 MOL     -0.380893
      2 C2         -5.9340    1.5790   -2.3500 c         1 MOL      0.540692
      3 O1         -5.1550    1.3470   -1.4350 o         1 MOL     -0.426013
      4 H1         -5.7990    0.6770   -4.3460 hc        1 MOL      0.105128
      5 H2         -5.7360    2.4550   -4.3520 hc        1 MOL      0.105128
      6 H3         -4.3160    1.5160   -3.8310 hc        1 MOL      0.105128
      7 N1         -7.2190    1.9410   -2.1220 n         1 MOL     -0.501205
      8 C3         -7.9440    1.8810   -0.8610 c3        1 MOL      0.175596
      9 C4         -7.7140    0.5320   -0.0640 c         1 MOL      0.538394
     10 O2         -7.5070    0.5060    1.1730 o         1 MOL     -0.524464
     11 C5         -7.8170    3.2180   -0.0640 c3        1 MOL     -0.274346
     12 C6         -7.9600    4.5320   -0.8650 c         1 MOL      0.777436
     13 O3         -7.3220    5.5240   -0.4220 o         1 MOL     -0.684757
     14 O4         -8.7280    4.6360   -1.8070 o         1 MOL     -0.684757
     15 H4         -7.7630    2.2140   -2.9330 hn        1 MOL      0.294116
     16 H5         -8.9810    1.7470   -1.1840 h1        1 MOL      0.016484
     17 H6         -6.8170    3.2460    0.3450 hc        1 MOL      0.068596
     18 H7         -8.5730    3.2060    0.7200 hc        1 MOL      0.068596
     19 N2         -7.8780   -0.5710   -0.7420 n         1 MOL     -0.702494
     20 C7         -7.9020   -1.9610   -0.1580 c3        1 MOL      0.358844
     21 C8         -6.4930   -2.5470    0.0640 c         1 MOL      0.387641
     22 O5         -6.3470   -3.7630   -0.0380 o         1 MOL     -0.598789
     23 C9         -8.7980   -2.9340   -0.9580 c3        1 MOL     -0.015050
     24 C10       -10.2740   -2.5530   -1.0000 c3        1 MOL     -0.138040
     25 C11       -10.9630   -3.6570   -1.8500 c3        1 MOL      0.107764
     26 C12       -12.4350   -3.3340   -2.1140 c3        1 MOL     -0.002474
     27 N3        -13.3320   -4.0110   -1.2150 n4        1 MOL     -0.437635
     28 H8         -7.9730   -0.4950   -1.7430 hn        1 MOL      0.314259
     29 H9         -8.3060   -1.9500    0.8530 h1        1 MOL      0.041043
     30 H10        -8.7590   -3.8410   -0.3680 hc        1 MOL      0.025806
     31 H11        -8.4620   -3.1380   -1.9770 hc        1 MOL      0.025806
     32 H12       -10.3890   -1.6120   -1.5360 hc        1 MOL      0.042071
     33 H13       -10.6500   -2.6380    0.0190 hc        1 MOL      0.042071
     34 H14       -11.0030   -4.5860   -1.2720 hc        1 MOL      0.011073
     35 H15       -10.4630   -3.9660   -2.7610 hc        1 MOL      0.011073
     36 H16       -12.6020   -3.6560   -3.1400 hx        1 MOL      0.093282
     37 H17       -12.5950   -2.2570   -2.1450 hx        1 MOL      0.093282
     38 H18       -13.2000   -5.0170   -1.1690 hn        1 MOL      0.335708
     39 H19       -13.0990   -3.7440   -0.2690 hn        1 MOL      0.335708
     40 H20       -14.2660   -3.6830   -1.4310 hn        1 MOL      0.335708
     41 N4         -5.4690   -1.7360    0.2690 n         1 MOL     -0.356155
     42 C13        -4.0890   -2.1420    0.5350 c3        1 MOL      0.404967
     43 C14        -3.7670   -2.1640    1.9960 c         1 MOL      0.245655
     44 O6         -3.9060   -1.1530    2.6890 o         1 MOL     -0.414733
     45 C15        -3.2230   -1.2580   -0.3350 c3        1 MOL     -0.509521
     46 C16        -1.7620   -1.3910   -0.0270 c         1 MOL      0.947791
     47 O7         -1.2450   -2.5720    0.0630 o         1 MOL     -0.861208
     48 O8         -0.9810   -0.4220   -0.0690 o         1 MOL     -0.861208
     49 H21        -5.6800   -0.7520    0.2330 hn        1 MOL      0.214998
     50 H22        -3.9770   -3.1160    0.0680 h1        1 MOL      0.045014
     51 H23        -3.5070   -0.2450   -0.0390 hc        1 MOL      0.124113
     52 H24        -3.3890   -1.4940   -1.3900 hc        1 MOL      0.124113
     53 N5         -3.4700   -3.3230    2.5280 n         1 MOL     -0.097977
     54 C17        -3.4440   -3.5730    3.9230 c3        1 MOL     -0.217262
     55 C18        -2.4800   -2.7080    4.7010 c         1 MOL      0.574831
     56 O9         -2.6970   -2.5250    5.8790 o         1 MOL     -0.548336
     57 H25        -3.4710   -4.1150    1.9090 hn        1 MOL      0.209719
     58 H26        -3.2170   -4.6180    4.1170 h1        1 MOL      0.113082
     59 H27        -4.4560   -3.4360    4.2890 h1        1 MOL      0.113082
     60 N6         -1.4210   -2.1650    4.0940 n         1 MOL     -0.411701
     61 C19        -0.5880   -1.1040    4.6970 c3        1 MOL      0.131931
     62 C20        -0.9520    0.3180    4.3760 c         1 MOL      0.336341
     63 O10        -0.3750    1.3120    4.8930 o         1 MOL     -0.535249
     64 C21         0.8810   -1.3170    4.3940 c3        1 MOL     -0.289438
     65 C22         1.3220   -0.8600    3.0350 c         1 MOL      0.802068
     66 N7          2.0800    0.1990    2.9090 n         1 MOL     -0.971167
     67 O11         0.9060   -1.3980    2.0060 o         1 MOL     -0.698838
     68 H28        -1.2640   -2.3550    3.1210 hn        1 MOL      0.253663
     69 H29        -0.6460   -1.1750    5.7890 h1        1 MOL      0.105264
     70 H30         1.0810   -2.3850    4.3860 hc        1 MOL      0.092561
     71 H31         1.5570   -0.8680    5.1280 hc        1 MOL      0.092561
     72 H32         2.3930    0.7780    3.6720 hn        1 MOL      0.421130
     73 H33         2.4160    0.4390    1.9880 hn        1 MOL      0.421130
     74 N8         -1.8320    0.5950    3.3890 n         1 MOL      0.007129
     75 C23        -2.2280    1.8540    2.8730 c3        1 MOL     -0.192460
     76 C24        -1.1760    2.6380    2.0820 c         1 MOL      0.579991
     77 O12        -0.8790    3.7630    2.5010 o         1 MOL     -0.582650
     78 H34        -2.4490   -0.1200    3.0260 hn        1 MOL      0.056505
     79 H35        -2.7670    2.4880    3.5730 h1        1 MOL      0.101238
     80 H36        -2.9860    1.6040    2.1360 h1        1 MOL      0.101238
     81 N9         -0.5640    2.1270    1.0240 n         1 MOL     -0.392470
     82 C25         0.3670    2.8670    0.1160 c3        1 MOL      0.434208
     83 C26         1.6650    2.1750   -0.0550 c         1 MOL      0.233460
     84 O13         1.6410    0.9130   -0.0920 o         1 MOL     -0.385118
     85 C27        -0.3390    3.0960   -1.2340 c3        1 MOL     -0.104535
     86 C28        -1.5610    4.0120   -1.1140 ca        1 MOL     -0.065370
     87 C29        -1.3890    5.3910   -1.2390 ca        1 MOL     -0.151995
     88 C30        -2.8450    3.4330   -0.9200 ca        1 MOL     -0.151995
     89 C31        -2.4830    6.1930   -1.0970 ca        1 MOL     -0.202189
     90 C32        -3.9590    4.2350   -0.8860 ca        1 MOL     -0.202189
     91 C33        -3.7700    5.6620   -0.9260 ca        1 MOL      0.368830
     92 O14        -4.8230    6.5000   -0.9040 oh        1 MOL     -0.567226
     93 H37        -0.9100    1.2370    0.6960 hn        1 MOL      0.300918
     94 H38         0.5890    3.8330    0.5670 h1        1 MOL     -0.039942
     95 H39        -0.5520    2.0850   -1.5580 hc        1 MOL      0.036698
     96 H40         0.3460    3.5810   -1.9200 hc        1 MOL      0.036698
     97 H41        -0.3880    5.7770   -1.4110 ha        1 MOL      0.096069
     98 H42        -2.9360    2.3590   -0.9280 ha        1 MOL      0.096069
     99 H43        -2.3300    7.2610   -1.1710 ha        1 MOL      0.119791
    100 H44        -4.9390    3.7980   -0.8550 ha        1 MOL      0.119791
    101 H45        -5.6670    6.0740   -0.7590 ho        1 MOL      0.427700
    102 N10         2.7750    2.8970   -0.3320 n         1 MOL     -0.508925
    103 C34         3.9740    2.2980   -0.9970 c3        1 MOL      0.179850
    104 C35         4.9540    1.9730    0.0990 c         1 MOL      0.428080
    105 O15         5.2940    0.8590    0.3580 o         1 MOL     -0.423751
    106 C36         4.5420    3.3300   -2.0680 c3        1 MOL     -0.000977
    107 C37         3.5230    3.7450   -3.0690 c3        1 MOL      0.089529
    108 C38         5.8340    2.8140   -2.7570 c3        1 MOL     -0.389512
    109 C39         2.9940    2.6600   -3.9170 c3        1 MOL     -0.142216
    110 H46         2.6870    3.8990   -0.2950 hn        1 MOL      0.319947
    111 H47         3.7030    1.3880   -1.5230 h1        1 MOL     -0.009783
    112 H48         4.7490    4.3040   -1.6130 hc        1 MOL     -0.014370
    113 H49         4.0010    4.4500   -3.7470 hc        1 MOL      0.005195
    114 H50         2.7080    4.2940   -2.5910 hc        1 MOL      0.005195
    115 H51         6.3390    3.5500   -3.3860 hc        1 MOL      0.115438
    116 H52         6.5440    2.5090   -1.9880 hc        1 MOL      0.115438
    117 H53         5.6360    1.9430   -3.3840 hc        1 MOL      0.115438
    118 H54         2.5160    1.8150   -3.4240 hc        1 MOL      0.042947
    119 H55         2.0970    3.0630   -4.3750 hc        1 MOL      0.042947
    120 H56         3.7120    2.4440   -4.7070 hc        1 MOL      0.042947
    121 N11         5.4530    2.9270    0.8630 n         1 MOL     -0.262090
    122 C40         6.3690    2.8260    2.0630 c3        1 MOL     -0.015939
    123 C41         7.6870    2.1340    1.6470 c         1 MOL      0.307384
    124 O16         8.1430    1.2430    2.3370 o         1 MOL     -0.451888
    125 C42         6.5590    4.2100    2.6160 c3        1 MOL      0.295941
    126 O17         5.3340    4.6800    3.0720 oh        1 MOL     -0.612672
    127 H57         5.0480    3.8530    0.7880 hn        1 MOL      0.189647
    128 H58         5.8610    2.1940    2.8010 h1        1 MOL      0.121679
    129 H59         7.0730    4.7890    1.8480 h1        1 MOL     -0.001094
    130 H60         7.3010    4.2070    3.4120 h1        1 MOL     -0.001094
    131 H61         5.2730    5.6280    3.1650 ho        1 MOL      0.419933
    132 N12         8.1530    2.3420    0.4020 n         1 MOL     -0.317299
    133 C43         9.1740    1.5870   -0.2870 c3        1 MOL      0.391563
    134 C44         9.1250    0.0640   -0.2070 c         1 MOL      0.216885
    135 O18        10.1650   -0.6200   -0.2380 o         1 MOL     -0.495458
    136 C45        10.5290    2.1650    0.1000 c3        1 MOL     -0.706045
    137 H62         7.6700    3.0770   -0.0840 hn        1 MOL      0.216901
    138 H63         8.8730    1.9250   -1.2750 h1        1 MOL      0.002798
    139 H64        10.5680    3.1900   -0.2600 hc        1 MOL      0.200641
    140 H65        10.6650    1.9000    1.1560 hc        1 MOL      0.200641
    141 H66        11.3160    1.6050   -0.3930 hc        1 MOL      0.200641
    142 N13         7.9520   -0.5160    0.0190 n         1 MOL     -0.076801
    143 C46         7.6180   -1.9500    0.1240 c3        1 MOL      0.322856
    144 C47         6.5340   -2.4020   -0.8390 c         1 MOL      0.149649
    145 O19         5.8800   -1.6710   -1.5440 o         1 MOL     -0.447161
    146 C48         7.3720   -2.2250    1.5780 c3        1 MOL     -0.227557
    147 H67         7.1770    0.1390    0.0360 hn        1 MOL     -0.001437
    148 H68         8.4490   -2.5580   -0.2540 h1        1 MOL      0.008884
    149 H69         7.5910   -3.2420    1.9060 hc        1 MOL      0.072400
    150 H70         7.8680   -1.5390    2.2630 hc        1 MOL      0.072400
    151 H71         6.3070   -2.0320    1.6630 hc        1 MOL      0.072400
    152 N14         6.4320   -3.6690   -0.8390 n         1 MOL     -0.351627
    153 C49         5.6500   -4.3900   -1.8860 c3        1 MOL     -0.025899
    154 C50         5.9530   -3.9240   -3.3240 c         1 MOL      0.437935
    155 O20         5.0570   -4.1190   -4.1720 o         1 MOL     -0.490825
    156 C51         4.0960   -4.3820   -1.5560 c3        1 MOL     -0.000156
    157 C52         3.8780   -4.8800   -0.1130 c3        1 MOL      0.040165
    158 C53         2.4420   -5.0730    0.2090 c         1 MOL      0.623145
    159 O21         1.7340   -4.0300    0.1980 o         1 MOL     -0.668798
    160 O22         1.9590   -6.1930    0.4880 o         1 MOL     -0.668798
    161 H72         6.9150   -4.2860   -0.2030 hn        1 MOL      0.304661
    162 H73         6.0460   -5.4040   -1.8410 h1        1 MOL      0.065613
    163 H74         3.5570   -5.0060   -2.2700 hc        1 MOL      0.016714
    164 H75         3.7690   -3.3600   -1.7680 hc        1 MOL      0.016714
    165 H76         4.2330   -4.1880    0.6540 hc        1 MOL     -0.045920
    166 H77         4.3540   -5.8400    0.0770 hc        1 MOL     -0.045920
    167 N15         7.2000   -3.4800   -3.6240 n         1 MOL     -0.243237
    168 C54         7.5520   -2.8560   -4.9510 c3        1 MOL     -0.256697
    169 H78         7.3400   -3.5640   -5.7520 h1        1 MOL      0.118706
    170 H79         6.9580   -1.9540   -5.0980 h1        1 MOL      0.118706
    171 H80         8.6110   -2.6000   -4.9630 h1        1 MOL      0.118706
    172 H81         7.9210   -3.7340   -2.9670 hn        1 MOL      0.247248
    173 Ca1         1.2780   -1.6850   -0.7070 Ca        1 MOL      1.763931
    174 O23         0.8780   -3.4350   -2.6530 oh        1 MOL     -0.815325
    175 H82         0.7500   -3.6460   -3.5730 ho        1 MOL      0.407735
    176 H83         0.5650   -4.2040   -2.1720 ho        1 MOL      0.407735
    177 O24         3.6120   -1.5910    0.6230 oh        1 MOL     -0.815325
    178 H84         4.2490   -0.9360    0.3570 ho        1 MOL      0.407735
    179 H85         3.9690   -1.9790    1.4230 ho        1 MOL      0.407735
    180 O25         3.3400   -1.1120   -2.3330 oh        1 MOL     -0.815325
    181 H86         3.6670   -0.9000   -3.2090 ho        1 MOL      0.407735
    182 H87         4.1270   -1.2660   -1.8180 ho        1 MOL      0.407735
    183 O26         0.3800   -0.5950   -3.0330 oh        1 MOL     -0.815325
    184 H88         0.4470    0.0550   -3.7340 ho        1 MOL      0.407735
    185 H89        -0.1180   -1.3200   -3.4260 ho        1 MOL      0.407735
@<TRIPOS>BOND
     1    1    2 1   
     2    1    4 1   
     3    1    5 1   
     4    1    6 1   
     5    2    3 2   
     6    2    7 1   
     7    7    8 1   
     8    7   15 1   
     9    8    9 1   
    10    8   11 1   
    11    8   16 1   
    12    9   10 2   
    13    9   19 1   
    14   11   12 1   
    15   11   17 1   
    16   11   18 1   
    17   12   13 1   
    18   12   14 1   
    19   19   20 1   
    20   19   28 1   
    21   20   21 1   
    22   20   23 1   
    23   20   29 1   
    24   21   22 2   
    25   21   41 1   
    26   23   24 1   
    27   23   30 1   
    28   23   31 1   
    29   24   25 1   
    30   24   32 1   
    31   24   33 1   
    32   25   26 1   
    33   25   34 1   
    34   25   35 1   
    35   26   27 1   
    36   26   36 1   
    37   26   37 1   
    38   27   38 1   
    39   27   39 1   
    40   27   40 1   
    41   41   42 1   
    42   41   49 1   
    43   42   43 1   
    44   42   45 1   
    45   42   50 1   
    46   43   44 2   
    47   43   53 1   
    48   45   46 1   
    49   45   51 1   
    50   45   52 1   
    51   46   47 1   
    52   46   48 1   
    53   53   54 1   
    54   53   57 1   
    55   54   55 1   
    56   54   58 1   
    57   54   59 1   
    58   55   56 2   
    59   55   60 1   
    60   60   61 1   
    61   60   68 1   
    62   61   62 1   
    63   61   64 1   
    64   61   69 1   
    65   62   63 2   
    66   62   74 1   
    67   64   65 1   
    68   64   70 1   
    69   64   71 1   
    70   65   66 1   
    71   65   67 2   
    72   66   72 1   
    73   66   73 1   
    74   74   75 1   
    75   74   78 1   
    76   75   76 1   
    77   75   79 1   
    78   75   80 1   
    79   76   77 2   
    80   76   81 1   
    81   81   82 1   
    82   81   93 1   
    83   82   83 1   
    84   82   85 1   
    85   82   94 1   
    86   83   84 2   
    87   83  102 1   
    88   85   86 1   
    89   85   95 1   
    90   85   96 1   
    91   86   87 ar  
    92   86   88 ar  
    93   87   89 ar  
    94   87   97 1   
    95   88   90 ar  
    96   88   98 1   
    97   89   91 ar  
    98   89   99 1   
    99   90   91 ar  
   100   90  100 1   
   101   91   92 1   
   102   92  101 1   
   103  102  103 1   
   104  102  110 1   
   105  103  104 1   
   106  103  106 1   
   107  103  111 1   
   108  104  105 2   
   109  104  121 1   
   110  106  107 1   
   111  106  108 1   
   112  106  112 1   
   113  107  109 1   
   114  107  113 1   
   115  107  114 1   
   116  108  115 1   
   117  108  116 1   
   118  108  117 1   
   119  109  118 1   
   120  109  119 1   
   121  109  120 1   
   122  121  122 1   
   123  121  127 1   
   124  122  123 1   
   125  122  125 1   
   126  122  128 1   
   127  123  124 2   
   128  123  132 1   
   129  125  126 1   
   130  125  129 1   
   131  125  130 1   
   132  126  131 1   
   133  132  133 1   
   134  132  137 1   
   135  133  134 1   
   136  133  136 1   
   137  133  138 1   
   138  134  135 2   
   139  134  142 1   
   140  136  139 1   
   141  136  140 1   
   142  136  141 1   
   143  142  143 1   
   144  142  147 1   
   145  143  144 1   
   146  143  146 1   
   147  143  148 1   
   148  144  145 2   
   149  144  152 1   
   150  146  149 1   
   151  146  150 1   
   152  146  151 1   
   153  152  153 1   
   154  152  161 1   
   155  153  154 1   
   156  153  156 1   
   157  153  162 1   
   158  154  155 2   
   159  154  167 1   
   160  156  157 1   
   161  156  163 1   
   162  156  164 1   
   163  157  158 1   
   164  157  165 1   
   165  157  166 1   
   166  158  159 1   
   167  158  160 1   
   168  167  168 1   
   169  167  172 1   
   170  168  169 1   
   171  168  170 1   
   172  168  171 1   
   173  174  175 1   
   174  174  176 1   
   175  177  178 1   
   176  177  179 1   
   177  180  181 1   
   178  180  182 1   
   179  183  184 1   
   180  183  185 1   
@<TRIPOS>SUBSTRUCTURE
     1 MOL         1 TEMP              0 ****  ****    0 ROOT
