@<TRIPOS>MOLECULE
MOL
  204   195     1     0     0
SMALL
resp


@<TRIPOS>ATOM
      1 C1         -2.1280   -3.9920    2.5760 c3        1 MOL     -0.243949
      2 C2         -1.0140   -4.3010    1.6330 c         1 MOL      0.572644
      3 O1         -0.3140   -3.3440    1.1900 o         1 MOL     -0.522659
      4 H1         -3.0270   -3.7500    2.0090 hc        1 MOL      0.057044
      5 H2         -2.3200   -4.8590    3.2080 hc        1 MOL      0.057044
      6 H3         -1.8530   -3.1420    3.1990 hc        1 MOL      0.057044
      7 N1         -0.8300   -5.6020    1.2870 n         1 MOL     -0.539459
      8 C3          0.2220   -6.0570    0.3990 c3        1 MOL      0.185117
      9 C4          1.6390   -5.4780    0.4330 c         1 MOL      0.658214
     10 O2          2.1980   -4.9970   -0.5380 o         1 MOL     -0.505728
     11 C5         -0.3570   -6.3020   -0.9950 c3        1 MOL     -0.395375
     12 C6         -1.4410   -5.3450   -1.5740 c         1 MOL      0.804894
     13 O3         -1.1560   -4.5080   -2.4230 o         1 MOL     -0.703860
     14 O4         -2.5750   -5.4780   -1.1130 o         1 MOL     -0.703860
     15 H4         -1.6570   -6.1520    1.4970 hn        1 MOL      0.300594
     16 H5          0.4830   -7.0200    0.8390 h1        1 MOL      0.018235
     17 H6         -0.6880   -7.3450   -1.0470 hc        1 MOL      0.072153
     18 H7          0.4780   -6.3740   -1.6960 hc        1 MOL      0.072153
     19 N2          2.2870   -5.5220    1.6060 n         1 MOL     -0.471443
     20 C7          3.6900   -4.9920    1.7440 c3        1 MOL     -0.202102
     21 C8          4.7820   -5.8470    1.0920 c         1 MOL      0.404208
     22 O5          4.5440   -7.1010    0.9910 o         1 MOL     -0.550215
     23 C9          4.0210   -4.7720    3.2630 c3        1 MOL      0.160625
     24 C10         3.7570   -5.9740    4.1840 c3        1 MOL      0.019007
     25 C11         3.0870   -3.6280    3.7940 c3        1 MOL     -0.286212
     26 C12         4.1140   -5.6690    5.6190 c3        1 MOL     -0.157484
     27 H8          1.8650   -5.9720    2.4100 hn        1 MOL      0.235446
     28 H9          3.6670   -3.9970    1.3040 h1        1 MOL      0.219066
     29 H10         5.0450   -4.3810    3.3050 hc        1 MOL      0.055247
     30 H11         4.3770   -6.7980    3.8400 hc        1 MOL      0.020603
     31 H12         2.7240   -6.3250    4.1550 hc        1 MOL      0.020603
     32 H13         3.2810   -2.7800    3.1410 hc        1 MOL      0.062324
     33 H14         2.0460   -3.9150    3.6130 hc        1 MOL      0.062324
     34 H15         3.2600   -3.3240    4.8330 hc        1 MOL      0.062324
     35 H16         5.1050   -5.2100    5.7120 hc        1 MOL      0.028699
     36 H17         3.4330   -5.0400    6.1870 hc        1 MOL      0.028699
     37 H18         4.0540   -6.5930    6.1850 hc        1 MOL      0.028699
     38 N3          5.8950   -5.3340    0.5860 n         1 MOL     -0.265203
     39 C13         6.2360   -3.8860    0.5590 c3        1 MOL     -0.095979
     40 C14         5.5190   -3.1790   -0.5800 c         1 MOL      0.497159
     41 O6          4.9030   -2.1310   -0.3770 o         1 MOL     -0.517812
     42 C15         7.6990   -3.6230    0.3620 c3        1 MOL     -0.071710
     43 C16         8.5150   -4.3120   -0.7930 c         1 MOL      0.628104
     44 O7          8.3140   -5.5280   -1.1230 o         1 MOL     -0.666985
     45 O8          9.5320   -3.7280   -1.2370 o         1 MOL     -0.666985
     46 H19         6.6150   -5.9080    0.1770 hn        1 MOL      0.205096
     47 H20         5.8710   -3.3940    1.4630 h1        1 MOL      0.044760
     48 H21         8.2690   -3.8580    1.2630 hc        1 MOL      0.016536
     49 H22         7.8780   -2.5560    0.2480 hc        1 MOL      0.016536
     50 N4          5.5390   -3.8990   -1.7400 n         1 MOL     -0.165378
     51 C17         5.1240   -3.3390   -3.0420 c3        1 MOL     -0.351631
     52 C18         5.9020   -2.0640   -3.3370 c         1 MOL      0.599281
     53 O9          7.0890   -2.0470   -3.6900 o         1 MOL     -0.542066
     54 H23         6.0790   -4.7370   -1.8730 hn        1 MOL      0.235121
     55 H24         4.0900   -3.0580   -2.8450 h1        1 MOL      0.154053
     56 H25         5.2160   -3.9710   -3.9200 h1        1 MOL      0.154053
     57 N5          5.1750   -0.9180   -3.2560 n         1 MOL     -0.457691
     58 C19         5.6910    0.3860   -3.6750 c3        1 MOL      0.037452
     59 C20         6.6000    1.0200   -2.6180 c         1 MOL      0.343696
     60 O10         7.2930    2.0100   -2.9190 o         1 MOL     -0.501936
     61 C21         4.5210    1.2660   -4.0690 c3        1 MOL     -0.210873
     62 C22         3.5000    1.3890   -3.0290 c         1 MOL      0.708504
     63 O11         3.5320    2.3470   -2.2250 o         1 MOL     -0.625926
     64 O12         2.5150    0.6030   -3.0620 o         1 MOL     -0.625926
     65 H26         4.2670   -0.9650   -2.8110 hn        1 MOL      0.273886
     66 H27         6.2860    0.2560   -4.5730 h1        1 MOL      0.114377
     67 H28         4.0460    0.8910   -4.9760 hc        1 MOL      0.048140
     68 H29         4.9640    2.2320   -4.3290 hc        1 MOL      0.048140
     69 N6          6.6490    0.5600   -1.3050 n         1 MOL     -0.107587
     70 C23         7.4020    1.3020   -0.2350 c3        1 MOL     -0.211705
     71 C24         6.9260    2.7360    0.0470 c         1 MOL      0.509818
     72 O13         7.5770    3.3770    0.9550 o         1 MOL     -0.617758
     73 H30         6.1630   -0.3090   -1.1520 hn        1 MOL      0.178210
     74 H31         8.4800    1.2660   -0.4000 h1        1 MOL      0.124810
     75 H32         7.2330    0.8370    0.7400 h1        1 MOL      0.124810
     76 N7          5.9220    3.3550   -0.6050 n         1 MOL      0.049209
     77 C25         5.2790    4.6900   -0.4460 c3        1 MOL     -0.283143
     78 C26         4.7270    5.0930    0.9600 c         1 MOL      0.662092
     79 O14         4.4760    6.2490    1.2240 o         1 MOL     -0.541154
     80 C27         6.1200    5.7470   -1.1600 c3        1 MOL      0.256394
     81 C28         6.4240    5.2780   -2.6140 c3        1 MOL     -0.150856
     82 C29         6.9400    6.4040   -3.5170 c         1 MOL      0.516577
     83 N8          8.0260    6.1020   -4.2750 n         1 MOL     -0.726401
     84 O15         6.5570    7.5580   -3.3920 o         1 MOL     -0.532047
     85 H33         5.6370    2.7600   -1.3730 hn        1 MOL     -0.122961
     86 H34         4.4050    4.6310   -1.1030 h1        1 MOL      0.187893
     87 H35         6.9940    6.0460   -0.5740 hc        1 MOL     -0.036550
     88 H36         5.4930    6.6330   -1.2970 hc        1 MOL     -0.036550
     89 H37         5.5900    4.7860   -3.1040 hc        1 MOL      0.073571
     90 H38         7.1910    4.5110   -2.5560 hc        1 MOL      0.073571
     91 H39         8.2210    5.1140   -4.3560 hn        1 MOL      0.333957
     92 H40         8.3970    6.8160   -4.8840 hn        1 MOL      0.333957
     93 N9          4.5200    4.0950    1.8050 n         1 MOL     -0.536406
     94 C30         4.0610    4.1910    3.2040 c3        1 MOL      0.111834
     95 C31         2.6690    3.7300    3.5150 c         1 MOL      0.443540
     96 O16         2.0010    4.3340    4.3640 o         1 MOL     -0.552897
     97 C32         5.0790    3.3980    4.0990 c3        1 MOL      0.271969
     98 C33         5.3880    2.0230    3.5430 c3        1 MOL     -0.367928
     99 C34         6.3830    4.2010    4.3320 c3        1 MOL     -0.367928
    100 H41         4.8790    3.2070    1.4990 hn        1 MOL      0.250481
    101 H42         4.0310    5.2230    3.5680 h1        1 MOL      0.063514
    102 H43         4.6040    3.2370    5.0620 hc        1 MOL     -0.032802
    103 H44         6.0250    2.1620    2.6710 hc        1 MOL      0.087097
    104 H45         5.8760    1.4960    4.3560 hc        1 MOL      0.087097
    105 H46         4.4070    1.5610    3.3930 hc        1 MOL      0.087097
    106 H47         7.0440    4.1620    3.4660 hc        1 MOL      0.087097
    107 H48         6.2190    5.2340    4.6240 hc        1 MOL      0.087097
    108 H49         6.8840    3.6700    5.1430 hc        1 MOL      0.087097
    109 N10         2.0890    2.8020    2.7160 n         1 MOL     -0.319920
    110 C35         0.6340    2.7710    2.5680 c3        1 MOL      0.199498
    111 C36         0.0580    3.3670    1.2310 c         1 MOL      0.609146
    112 O17         0.7750    3.6860    0.2810 o         1 MOL     -0.519476
    113 C37         0.1780    1.3300    2.8600 c3        1 MOL     -0.420403
    114 C38         0.8080    0.6470    4.1250 c         1 MOL      0.754421
    115 N11         1.6700   -0.3370    4.0000 n         1 MOL     -0.859419
    116 O18         0.5030    1.0640    5.2360 o         1 MOL     -0.585758
    117 H50         2.6570    2.3860    1.9960 hn        1 MOL      0.240549
    118 H51         0.0600    3.3440    3.2940 h1        1 MOL      0.053255
    119 H52         0.5660    0.6920    2.0600 hc        1 MOL      0.127540
    120 H53        -0.9080    1.2450    2.9110 hc        1 MOL      0.127540
    121 H54         1.9340   -0.7500    3.1250 hn        1 MOL      0.372132
    122 H55         2.1260   -0.7510    4.8110 hn        1 MOL      0.372132
    123 N12        -1.2850    3.4380    1.1420 n         1 MOL     -0.621746
    124 C39        -1.9820    4.1590    0.0520 c3        1 MOL      0.016282
    125 C40        -3.3600    4.3270    0.4080 c         1 MOL      0.680499
    126 O19        -3.9670    3.5400    1.1090 o         1 MOL     -0.581945
    127 C41        -1.9060    3.5020   -1.3520 c3        1 MOL     -0.094192
    128 C42        -2.2040    2.0020   -1.6030 ca        1 MOL     -0.003742
    129 C43        -1.3450    1.0360   -1.0610 ca        1 MOL     -0.049713
    130 C44        -3.3570    1.5830   -2.2880 ca        1 MOL     -0.049713
    131 C45        -1.5990   -0.3510   -1.1930 ca        1 MOL     -0.335348
    132 C46        -3.5040    0.2120   -2.5330 ca        1 MOL     -0.335348
    133 C47        -2.6700   -0.7760   -2.0180 ca        1 MOL      0.416396
    134 O20        -2.8910   -2.1050   -2.2410 oh        1 MOL     -0.592617
    135 H56        -1.8460    3.2290    1.9610 hn        1 MOL      0.333333
    136 H57        -1.6030    5.1820    0.0320 h1        1 MOL      0.090814
    137 H58        -0.8930    3.7520   -1.6700 hc        1 MOL      0.067315
    138 H59        -2.4840    4.0140   -2.1150 hc        1 MOL      0.067315
    139 H60        -0.5210    1.3000   -0.4230 ha        1 MOL      0.099377
    140 H61        -4.1160    2.2570   -2.6720 ha        1 MOL      0.099377
    141 H62        -1.0290   -1.1100   -0.6840 ha        1 MOL      0.166190
    142 H63        -4.3850   -0.1080   -3.0570 ha        1 MOL      0.166190
    143 H64        -2.2190   -2.6950   -1.9080 ho        1 MOL      0.494963
    144 N13        -4.0050    5.3920   -0.0730 n         1 MOL     -0.622078
    145 C48        -5.4370    5.5920   -0.0560 c3        1 MOL      0.129395
    146 C49        -6.1520    5.1430   -1.3700 c         1 MOL      0.671031
    147 O21        -6.2850    5.9270   -2.2760 o         1 MOL     -0.585284
    148 C50        -5.6530    7.0760    0.3100 c3        1 MOL     -0.063318
    149 C51        -7.1350    7.6270    0.4590 c3        1 MOL     -0.279837
    150 C52        -7.2070    9.0720    1.0360 c         1 MOL      0.724694
    151 O22        -6.6970    9.2660    2.1560 o         1 MOL     -0.680493
    152 O23        -7.8390    9.9780    0.4110 o         1 MOL     -0.680493
    153 H65        -3.4830    6.0210   -0.6700 hn        1 MOL      0.299808
    154 H66        -5.8510    5.0110    0.7610 h1        1 MOL      0.093926
    155 H67        -5.2070    7.7110   -0.4560 hc        1 MOL      0.044678
    156 H68        -5.1250    7.3680    1.2130 hc        1 MOL      0.044678
    157 H69        -7.6730    6.9010    1.0640 hc        1 MOL      0.058912
    158 H70        -7.6330    7.5750   -0.5130 hc        1 MOL      0.058912
    159 N14        -6.7250    3.9560   -1.5570 n         1 MOL     -0.530637
    160 C53        -6.6170    2.7580   -0.7110 c3        1 MOL     -0.064989
    161 C54        -7.3730    2.9740    0.6100 c         1 MOL      0.398199
    162 O24        -8.6250    3.2810    0.6530 o         1 MOL     -0.536117
    163 C55        -7.1510    1.5190   -1.4930 c3        1 MOL     -0.027658
    164 C56        -6.9970    0.2010   -0.7140 c3        1 MOL     -0.281591
    165 C57        -7.6040   -1.0000   -1.4590 c         1 MOL      0.684657
    166 O25        -8.3660   -0.8170   -2.4840 o         1 MOL     -0.680149
    167 O26        -7.2480   -2.1860   -1.2400 o         1 MOL     -0.680149
    168 H71        -7.1600    3.7180   -2.4340 hn        1 MOL      0.313472
    169 H72        -5.5760    2.5790   -0.4440 h1        1 MOL      0.054927
    170 H73        -6.6260    1.4450   -2.4390 hc        1 MOL      0.060605
    171 H74        -8.1980    1.5560   -1.8010 hc        1 MOL      0.060605
    172 H75        -7.3680    0.1790    0.3060 hc        1 MOL      0.072775
    173 H76        -5.9490    0.0750   -0.4420 hc        1 MOL      0.072775
    174 N15        -6.6530    2.7820    1.7290 n         1 MOL     -0.176977
    175 C58        -7.1330    2.8730    3.1000 c3        1 MOL     -0.167200
    176 H77        -6.5440    2.2120    3.7350 h1        1 MOL      0.078475
    177 H78        -7.0330    3.8990    3.4540 h1        1 MOL      0.078475
    178 H79        -8.1800    2.5750    3.1390 h1        1 MOL      0.078475
    179 H80        -5.6600    2.6290    1.5760 hn        1 MOL      0.245222
    180 Ca1        -7.3400   -4.7300   -0.6950 Ca        1 MOL      1.814683
    181 O27        -9.2770   -3.3820    0.5320 oh        1 MOL     -0.830498
    182 H81       -10.1020   -3.4510    0.0590 ho        1 MOL      0.385817
    183 H82        -9.5020   -2.8880    1.3210 ho        1 MOL      0.385817
    184 O28        -8.7030   -3.5920   -2.8720 oh        1 MOL     -0.830498
    185 H83        -9.5810   -3.3470   -2.5970 ho        1 MOL      0.385817
    186 H84        -8.1770   -2.8150   -2.7530 ho        1 MOL      0.385817
    187 O29        -4.7220   -3.8720   -1.0390 oh        1 MOL     -0.830498
    188 H85        -4.6090   -3.4180   -1.8710 ho        1 MOL      0.385817
    189 H86        -3.8900   -4.3400   -0.9080 ho        1 MOL      0.385817
    190 O30        -6.5300   -3.5940    1.7610 oh        1 MOL     -0.830498
    191 H87        -7.1890   -3.3850    2.4350 ho        1 MOL      0.385817
    192 H88        -5.7150   -3.7000    2.2510 ho        1 MOL      0.385817
    193 O31        -8.4690   -6.3560    1.4830 oh        1 MOL     -0.830498
    194 H89        -8.2770   -5.7970    2.2360 ho        1 MOL      0.385817
    195 H90        -7.9800   -7.1560    1.6440 ho        1 MOL      0.385817
    196 O32        -9.3970   -6.3440   -1.3670 oh        1 MOL     -0.830498
    197 H91       -10.1370   -6.3840   -1.9710 ho        1 MOL      0.385817
    198 H92        -9.6430   -6.9150   -0.6420 ho        1 MOL      0.385817
    199 O33        -5.9030   -6.8290    0.2890 oh        1 MOL     -0.830498
    200 H93        -6.1160   -7.7300    0.0650 ho        1 MOL      0.385817
    201 H94        -5.0330   -6.8800    0.6960 ho        1 MOL      0.385817
    202 O34        -6.4250   -5.9870   -2.9100 oh        1 MOL     -0.830498
    203 H95        -6.7820   -6.7700   -3.3310 ho        1 MOL      0.385817
    204 H96        -5.6730   -5.7510   -3.4420 ho        1 MOL      0.385817
@<TRIPOS>BOND
     1    1    2 1   
     2    1    4 1   
     3    1    5 1   
     4    1    6 1   
     5    2    3 2   
     6    2    7 1   
     7    7    8 1   
     8    7   15 1   
     9    8    9 1   
    10    8   11 1   
    11    8   16 1   
    12    9   10 2   
    13    9   19 1   
    14   11   12 1   
    15   11   17 1   
    16   11   18 1   
    17   12   13 1   
    18   12   14 1   
    19   19   20 1   
    20   19   27 1   
    21   20   21 1   
    22   20   23 1   
    23   20   28 1   
    24   21   22 2   
    25   21   38 1   
    26   23   24 1   
    27   23   25 1   
    28   23   29 1   
    29   24   26 1   
    30   24   30 1   
    31   24   31 1   
    32   25   32 1   
    33   25   33 1   
    34   25   34 1   
    35   26   35 1   
    36   26   36 1   
    37   26   37 1   
    38   38   39 1   
    39   38   46 1   
    40   39   40 1   
    41   39   42 1   
    42   39   47 1   
    43   40   41 2   
    44   40   50 1   
    45   42   43 1   
    46   42   48 1   
    47   42   49 1   
    48   43   44 1   
    49   43   45 1   
    50   50   51 1   
    51   50   54 1   
    52   51   52 1   
    53   51   55 1   
    54   51   56 1   
    55   52   53 2   
    56   52   57 1   
    57   57   58 1   
    58   57   65 1   
    59   58   59 1   
    60   58   61 1   
    61   58   66 1   
    62   59   60 2   
    63   59   69 1   
    64   61   62 1   
    65   61   67 1   
    66   61   68 1   
    67   62   63 1   
    68   62   64 1   
    69   69   70 1   
    70   69   73 1   
    71   70   71 1   
    72   70   74 1   
    73   70   75 1   
    74   71   72 2   
    75   71   76 1   
    76   76   77 1   
    77   76   85 1   
    78   77   78 1   
    79   77   80 1   
    80   77   86 1   
    81   78   79 2   
    82   78   93 1   
    83   80   81 1   
    84   80   87 1   
    85   80   88 1   
    86   81   82 1   
    87   81   89 1   
    88   81   90 1   
    89   82   83 1   
    90   82   84 2   
    91   83   91 1   
    92   83   92 1   
    93   93   94 1   
    94   93  100 1   
    95   94   95 1   
    96   94   97 1   
    97   94  101 1   
    98   95   96 2   
    99   95  109 1   
   100   97   98 1   
   101   97   99 1   
   102   97  102 1   
   103   98  103 1   
   104   98  104 1   
   105   98  105 1   
   106   99  106 1   
   107   99  107 1   
   108   99  108 1   
   109  109  110 1   
   110  109  117 1   
   111  110  111 1   
   112  110  113 1   
   113  110  118 1   
   114  111  112 2   
   115  111  123 1   
   116  113  114 1   
   117  113  119 1   
   118  113  120 1   
   119  114  115 1   
   120  114  116 2   
   121  115  121 1   
   122  115  122 1   
   123  123  124 1   
   124  123  135 1   
   125  124  125 1   
   126  124  127 1   
   127  124  136 1   
   128  125  126 2   
   129  125  144 1   
   130  127  128 1   
   131  127  137 1   
   132  127  138 1   
   133  128  129 ar  
   134  128  130 ar  
   135  129  131 ar  
   136  129  139 1   
   137  130  132 ar  
   138  130  140 1   
   139  131  133 ar  
   140  131  141 1   
   141  132  133 ar  
   142  132  142 1   
   143  133  134 1   
   144  134  143 1   
   145  144  145 1   
   146  144  153 1   
   147  145  146 1   
   148  145  148 1   
   149  145  154 1   
   150  146  147 2   
   151  146  159 1   
   152  148  149 1   
   153  148  155 1   
   154  148  156 1   
   155  149  150 1   
   156  149  157 1   
   157  149  158 1   
   158  150  151 1   
   159  150  152 1   
   160  159  160 1   
   161  159  168 1   
   162  160  161 1   
   163  160  163 1   
   164  160  169 1   
   165  161  162 2   
   166  161  174 1   
   167  163  164 1   
   168  163  170 1   
   169  163  171 1   
   170  164  165 1   
   171  164  172 1   
   172  164  173 1   
   173  165  166 1   
   174  165  167 1   
   175  174  175 1   
   176  174  179 1   
   177  175  176 1   
   178  175  177 1   
   179  175  178 1   
   180  181  182 1   
   181  181  183 1   
   182  184  185 1   
   183  184  186 1   
   184  187  188 1   
   185  187  189 1   
   186  190  191 1   
   187  190  192 1   
   188  193  194 1   
   189  193  195 1   
   190  196  197 1   
   191  196  198 1   
   192  199  200 1   
   193  199  201 1   
   194  202  203 1   
   195  202  204 1   
@<TRIPOS>SUBSTRUCTURE
     1 MOL         1 TEMP              0 ****  ****    0 ROOT
