@<TRIPOS>MOLECULE
MOL
  181   177     1     0     0
SMALL
resp


@<TRIPOS>ATOM
      1 C1        -11.0950   -6.3590   -3.1180 c3        1 MOL     -0.258219
      2 C2         -9.9630   -5.7560   -2.0930 c         1 MOL      0.548667
      3 O1         -9.3200   -6.5820   -1.4580 o         1 MOL     -0.580707
      4 H1        -11.6140   -7.1880   -2.6380 hc        1 MOL      0.064817
      5 H2        -11.8130   -5.5770   -3.3670 hc        1 MOL      0.064817
      6 H3        -10.6110   -6.7120   -4.0290 hc        1 MOL      0.064817
      7 N1         -9.6130   -4.5050   -2.0640 n         1 MOL     -0.347628
      8 C3         -9.9930   -3.3410   -2.9130 c3        1 MOL     -0.063010
      9 C4        -10.9100   -2.3790   -2.1270 c         1 MOL      0.644609
     10 O2        -11.5600   -1.6140   -2.7270 o         1 MOL     -0.573362
     11 C5         -8.6830   -2.7170   -3.3770 c3        1 MOL     -0.235225
     12 C6         -7.8730   -2.1510   -2.1740 c         1 MOL      0.795843
     13 O3         -6.9190   -1.3880   -2.4850 o         1 MOL     -0.744685
     14 O4         -8.1170   -2.3090   -0.9500 o         1 MOL     -0.744685
     15 H4         -9.0120   -4.2780   -1.2710 hn        1 MOL      0.213119
     16 H5        -10.4860   -3.8510   -3.7490 h1        1 MOL      0.098861
     17 H6         -8.8640   -1.9090   -4.0810 hc        1 MOL      0.092141
     18 H7         -8.0920   -3.4470   -3.9450 hc        1 MOL      0.092141
     19 N2        -11.0430   -2.3850   -0.8000 n         1 MOL     -0.592157
     20 C7        -11.9200   -1.4920   -0.0460 c3        1 MOL      0.386159
     21 C8        -11.3050   -0.1100    0.3430 c         1 MOL      0.279601
     22 O5        -12.0430    0.8170    0.6080 o         1 MOL     -0.547639
     23 C9        -12.4980   -2.2870    1.1290 c3        1 MOL     -0.440802
     24 H8        -10.4080   -2.9860   -0.3010 hn        1 MOL      0.293493
     25 H9        -12.7400   -1.3610   -0.7550 h1        1 MOL      0.034845
     26 H10       -11.7280   -2.5410    1.8530 hc        1 MOL      0.114190
     27 H11       -13.2860   -1.6810    1.5810 hc        1 MOL      0.114190
     28 H12       -13.0090   -3.1500    0.6840 hc        1 MOL      0.114190
     29 N3         -9.9760   -0.0040    0.5920 n         1 MOL      0.039465
     30 C10        -9.3090    1.2110    1.1000 c3        1 MOL     -0.130461
     31 C11        -8.1180    1.7160    0.1850 c         1 MOL      0.352136
     32 O6         -7.3740    0.8770   -0.2520 o         1 MOL     -0.454594
     33 C12        -8.8090    1.1080    2.5060 c3        1 MOL      0.134961
     34 C13        -8.1530   -0.2420    2.8440 c         1 MOL      0.596742
     35 O7         -7.6590   -0.9670    1.9080 o         1 MOL     -0.697583
     36 O8         -8.0150   -0.5140    4.0470 o         1 MOL     -0.697583
     37 H13        -9.4470   -0.8470    0.4350 hn        1 MOL      0.072140
     38 H14       -10.0030    2.0530    1.0980 h1        1 MOL      0.060082
     39 H15        -9.7040    1.1550    3.1240 hc        1 MOL     -0.018809
     40 H16        -8.1520    1.9030    2.8540 hc        1 MOL     -0.018809
     41 N4         -8.0070    3.0070   -0.0520 n         1 MOL     -0.265713
     42 C14        -6.8940    3.6880   -0.7430 c3        1 MOL     -0.128732
     43 C15        -5.7280    3.9550    0.1890 c         1 MOL      0.706656
     44 O9         -5.8990    4.6280    1.2190 o         1 MOL     -0.575160
     45 H17        -8.6910    3.6390    0.3630 hn        1 MOL      0.256935
     46 H18        -7.1620    4.5620   -1.3280 h1        1 MOL      0.089297
     47 H19        -6.5070    2.9570   -1.4480 h1        1 MOL      0.089297
     48 N5         -4.5350    3.3850   -0.0880 n         1 MOL     -0.781325
     49 C16        -3.4340    3.4120    0.8180 c3        1 MOL      0.363164
     50 C17        -2.1340    3.9260    0.1770 c         1 MOL      0.622137
     51 O10        -1.7280    3.3550   -0.8580 o         1 MOL     -0.543259
     52 C18        -3.2260    2.0000    1.3670 c3        1 MOL     -0.712745
     53 C19        -4.3880    1.4660    2.1420 c         1 MOL      0.769043
     54 N6         -4.5900    1.8550    3.3710 n         1 MOL     -0.663003
     55 O11        -5.1070    0.5960    1.6960 o         1 MOL     -0.589612
     56 H20        -4.4090    2.9360   -0.9820 hn        1 MOL      0.357681
     57 H21        -3.6110    4.1770    1.5830 h1        1 MOL      0.023145
     58 H22        -2.2670    2.0200    1.9020 hc        1 MOL      0.218474
     59 H23        -3.1390    1.2710    0.5540 hc        1 MOL      0.218474
     60 H24        -3.8300    2.4410    3.6930 hn        1 MOL      0.340289
     61 H25        -5.1750    1.2270    3.9050 hn        1 MOL      0.340289
     62 N7         -1.4410    4.8860    0.7530 n         1 MOL     -0.607244
     63 C20        -0.1830    5.3180    0.2240 c3        1 MOL      0.140982
     64 C21         0.7150    5.9830    1.3310 c         1 MOL      0.446321
     65 O12         0.3870    6.0600    2.4900 o         1 MOL     -0.517473
     66 H26        -1.6320    5.1350    1.7130 hn        1 MOL      0.314456
     67 H27        -0.2610    5.9770   -0.6430 h1        1 MOL      0.084741
     68 H28         0.3470    4.5010   -0.2720 h1        1 MOL      0.084741
     69 N8          1.8080    6.5770    0.8140 n         1 MOL     -0.263583
     70 C22         2.2580    6.8480   -0.5410 c3        1 MOL     -0.453549
     71 C23         2.9450    5.6510   -1.2010 c         1 MOL      0.452392
     72 O13         2.9380    5.5900   -2.4610 o         1 MOL     -0.523898
     73 C24         3.3450    7.9490   -0.4740 c3        1 MOL      0.521793
     74 C25         2.8030    9.3000   -0.1060 c3        1 MOL     -0.535659
     75 O14         4.3970    7.5990    0.4410 oh        1 MOL     -0.633065
     76 H29         2.3200    6.9650    1.5980 hn        1 MOL      0.277010
     77 H30         1.4010    7.1490   -1.1380 h1        1 MOL      0.197651
     78 H31         3.8780    8.0470   -1.4240 h1        1 MOL      0.000853
     79 H32         5.2200    7.9760    0.1170 ho        1 MOL      0.404050
     80 H33         1.7870    9.4080   -0.5000 hc        1 MOL      0.129033
     81 H34         2.8880    9.5220    0.9530 hc        1 MOL      0.129033
     82 H35         3.5010   10.0200   -0.5510 hc        1 MOL      0.129033
     83 N9          3.5020    4.7250   -0.3990 n         1 MOL     -0.137924
     84 C26         4.2110    3.5810   -0.8610 c3        1 MOL     -0.002611
     85 C27         3.8100    2.3970    0.0320 c         1 MOL      0.449249
     86 O15         3.2190    2.5590    1.0500 o         1 MOL     -0.521033
     87 C28         5.7680    3.8130   -0.9620 c3        1 MOL      0.325111
     88 C29         6.1470    4.3160    0.4260 c3        1 MOL      0.073424
     89 C30         6.1920    4.7690   -2.1030 c3        1 MOL     -0.112959
     90 C31         7.6300    4.1140    0.7760 c3        1 MOL     -0.464565
     91 H36         3.3320    4.7180    0.5990 hn        1 MOL      0.162686
     92 H37         3.8790    3.2740   -1.8500 h1        1 MOL      0.075464
     93 H38         6.2980    2.8900   -1.1780 hc        1 MOL     -0.059794
     94 H39         5.5670    3.8590    1.2270 hc        1 MOL      0.006979
     95 H40         5.8010    5.3510    0.4540 hc        1 MOL      0.006979
     96 H41         7.2790    4.8400   -2.1420 hc        1 MOL     -0.013749
     97 H42         5.6750    4.3770   -2.9700 hc        1 MOL     -0.013749
     98 H43         5.8590    5.7820   -1.8490 hc        1 MOL     -0.013749
     99 H44         8.3290    4.6480    0.1310 hc        1 MOL      0.102976
    100 H45         7.8440    4.3780    1.8110 hc        1 MOL      0.102976
    101 H46         7.8890    3.0590    0.6460 hc        1 MOL      0.102976
    102 N10         4.0160    1.1760   -0.3520 n         1 MOL     -0.435468
    103 C32         4.5740    0.5230   -1.5950 c3        1 MOL      0.019597
    104 C33         5.7870   -0.4270   -1.3430 c         1 MOL      0.675134
    105 O16         5.7140   -1.1160   -0.3530 o         1 MOL     -0.531466
    106 C34         3.4330   -0.2600   -2.2590 c3        1 MOL     -0.303388
    107 C35         2.2190    0.5950   -2.5790 c         1 MOL      0.792218
    108 O17         1.0470    0.2060   -2.3950 o         1 MOL     -0.718676
    109 O18         2.3470    1.6700   -3.2080 o         1 MOL     -0.718676
    110 H47         3.7160    0.5210    0.3570 hn        1 MOL      0.349513
    111 H48         4.9670    1.2820   -2.2630 h1        1 MOL      0.034453
    112 H49         3.2160   -1.1370   -1.6540 hc        1 MOL      0.049656
    113 H50         3.7180   -0.6740   -3.2180 hc        1 MOL      0.049656
    114 N11         6.8700   -0.4510   -2.1740 n         1 MOL     -0.701619
    115 C36         8.0730   -1.1550   -1.8090 c3        1 MOL      0.483775
    116 C37         8.5590   -0.7830   -0.3430 c         1 MOL      0.256165
    117 O19         8.6080    0.4110    0.0420 o         1 MOL     -0.519372
    118 C38         9.1030   -0.9980   -2.9290 c3        1 MOL     -0.378287
    119 C39        10.3630   -1.8350   -2.8660 ca        1 MOL      0.134416
    120 C40        10.5600   -2.9440   -3.7190 ca        1 MOL     -0.109161
    121 C41        11.5020   -1.3160   -2.1810 ca        1 MOL     -0.109161
    122 C42        11.8310   -3.5920   -3.8970 ca        1 MOL     -0.180965
    123 C43        12.7830   -1.8790   -2.3890 ca        1 MOL     -0.180965
    124 C44        12.9310   -3.0460   -3.2010 ca        1 MOL     -0.083059
    125 H51         6.8500    0.2130   -2.9280 hn        1 MOL      0.335509
    126 H52         7.7010   -2.1750   -1.8110 h1        1 MOL     -0.025857
    127 H53         9.4330    0.0320   -2.9800 hc        1 MOL      0.108937
    128 H54         8.5220   -1.1450   -3.8370 hc        1 MOL      0.108937
    129 H55         9.6840   -3.3070   -4.2350 ha        1 MOL      0.103313
    130 H56        11.3320   -0.4180   -1.6080 ha        1 MOL      0.103313
    131 H57        11.8790   -4.5430   -4.3950 ha        1 MOL      0.131077
    132 H58        13.6480   -1.4730   -1.8740 ha        1 MOL      0.131077
    133 H59        13.8840   -3.4950   -3.4120 ha        1 MOL      0.096965
    134 N12         9.0490   -1.7890    0.3720 n         1 MOL      0.087550
    135 C45         9.2510   -3.2020    0.0720 c3        1 MOL     -0.061952
    136 C46         8.1410   -4.1680    0.5120 c         1 MOL      0.541225
    137 O20         7.9950   -5.3210    0.0160 o         1 MOL     -0.582922
    138 C47        10.5710   -3.5840    0.7530 c3        1 MOL      0.003919
    139 C48        10.4800   -2.7710    2.0300 c3        1 MOL     -0.080994
    140 C49         9.8980   -1.4910    1.5380 c3        1 MOL      0.087176
    141 H60         9.5120   -3.4500   -0.9550 h1        1 MOL      0.011216
    142 H61        10.6270   -4.6410    1.0330 hc        1 MOL      0.017519
    143 H62        11.3810   -3.2750    0.0960 hc        1 MOL      0.017519
    144 H63         9.8090   -3.2500    2.7540 hc        1 MOL      0.025701
    145 H64        11.4840   -2.6520    2.4200 hc        1 MOL      0.025701
    146 H65         9.3540   -0.9460    2.3100 h1        1 MOL      0.011583
    147 H66        10.7380   -0.8180    1.3400 h1        1 MOL      0.011583
    148 N13         7.1830   -3.7040    1.3810 n         1 MOL     -0.418718
    149 C50         6.0900   -4.5590    1.9490 c3        1 MOL      0.029834
    150 C51         6.7170   -5.6020    2.8610 c         1 MOL      0.545964
    151 O21         7.5740   -5.3030    3.7040 o         1 MOL     -0.573327
    152 C52         5.0450   -3.6910    2.6880 c3        1 MOL     -0.123835
    153 C53         5.4770   -2.9210    3.9420 c3        1 MOL     -0.135785
    154 C54         4.3980   -1.9320    4.4080 c         1 MOL      0.765489
    155 O22         4.3680   -0.7920    3.8930 o         1 MOL     -0.751006
    156 O23         3.6780   -2.2870    5.3360 o         1 MOL     -0.751006
    157 H67         7.2990   -2.7620    1.7160 hn        1 MOL      0.296953
    158 H68         5.6270   -5.0160    1.0860 h1        1 MOL      0.103211
    159 H69         4.1590   -4.2650    2.9120 hc        1 MOL      0.046178
    160 H70         4.7170   -2.9640    1.9420 hc        1 MOL      0.046178
    161 H71         6.3930   -2.3260    3.8680 hc        1 MOL      0.009155
    162 H72         5.4190   -3.6160    4.7690 hc        1 MOL      0.009155
    163 N14         6.4100   -6.9360    2.7670 n         1 MOL     -0.360406
    164 C55         5.7520   -7.6120    1.6950 c3        1 MOL     -0.091087
    165 H73         5.2990   -8.5300    2.0700 h1        1 MOL      0.055703
    166 H74         4.9770   -6.9680    1.2810 h1        1 MOL      0.055703
    167 H75         6.4770   -7.8550    0.9190 h1        1 MOL      0.055703
    168 H76         6.7510   -7.5550    3.4870 hn        1 MOL      0.264218
    169 Ca1        -5.8780   -1.3570    0.0210 Ca        1 MOL      1.723045
    170 O24        -4.6410   -3.3530   -1.2650 oh        1 MOL     -0.831798
    171 H77        -4.8640   -4.0090   -1.9250 ho        1 MOL      0.416969
    172 H78        -3.7610   -3.5690   -0.9730 ho        1 MOL      0.416969
    173 O25        -4.0840   -0.0480   -1.3990 oh        1 MOL     -0.831798
    174 H79        -4.0550    0.8450   -1.7530 ho        1 MOL      0.416969
    175 H80        -3.2330   -0.4220   -1.6180 ho        1 MOL      0.416969
    176 O26        -5.9300   -3.4380    1.6990 oh        1 MOL     -0.831798
    177 H81        -6.3550   -4.2980    1.6370 ho        1 MOL      0.416969
    178 H82        -6.0330   -3.1860    2.6200 ho        1 MOL      0.416969
    179 O27        -3.3710   -1.8860    1.1160 oh        1 MOL     -0.831798
    180 H83        -3.3350   -1.8410    2.0660 ho        1 MOL      0.416969
    181 H84        -2.7460   -2.5680    0.8810 ho        1 MOL      0.416969
@<TRIPOS>BOND
     1    1    2 1   
     2    1    4 1   
     3    1    5 1   
     4    1    6 1   
     5    2    3 2   
     6    2    7 1   
     7    7    8 1   
     8    7   15 1   
     9    8    9 1   
    10    8   11 1   
    11    8   16 1   
    12    9   10 2   
    13    9   19 1   
    14   11   12 1   
    15   11   17 1   
    16   11   18 1   
    17   12   13 1   
    18   12   14 1   
    19   19   20 1   
    20   19   24 1   
    21   20   21 1   
    22   20   23 1   
    23   20   25 1   
    24   21   22 2   
    25   21   29 1   
    26   23   26 1   
    27   23   27 1   
    28   23   28 1   
    29   29   30 1   
    30   29   37 1   
    31   30   31 1   
    32   30   33 1   
    33   30   38 1   
    34   31   32 2   
    35   31   41 1   
    36   33   34 1   
    37   33   39 1   
    38   33   40 1   
    39   34   35 1   
    40   34   36 1   
    41   41   42 1   
    42   41   45 1   
    43   42   43 1   
    44   42   46 1   
    45   42   47 1   
    46   43   44 2   
    47   43   48 1   
    48   48   49 1   
    49   48   56 1   
    50   49   50 1   
    51   49   52 1   
    52   49   57 1   
    53   50   51 2   
    54   50   62 1   
    55   52   53 1   
    56   52   58 1   
    57   52   59 1   
    58   53   54 1   
    59   53   55 2   
    60   54   60 1   
    61   54   61 1   
    62   62   63 1   
    63   62   66 1   
    64   63   64 1   
    65   63   67 1   
    66   63   68 1   
    67   64   65 2   
    68   64   69 1   
    69   69   70 1   
    70   69   76 1   
    71   70   71 1   
    72   70   73 1   
    73   70   77 1   
    74   71   72 2   
    75   71   83 1   
    76   73   74 1   
    77   73   75 1   
    78   73   78 1   
    79   74   80 1   
    80   74   81 1   
    81   74   82 1   
    82   75   79 1   
    83   83   84 1   
    84   83   91 1   
    85   84   85 1   
    86   84   87 1   
    87   84   92 1   
    88   85   86 2   
    89   85  102 1   
    90   87   88 1   
    91   87   89 1   
    92   87   93 1   
    93   88   90 1   
    94   88   94 1   
    95   88   95 1   
    96   89   96 1   
    97   89   97 1   
    98   89   98 1   
    99   90   99 1   
   100   90  100 1   
   101   90  101 1   
   102  102  103 1   
   103  102  110 1   
   104  103  104 1   
   105  103  106 1   
   106  103  111 1   
   107  104  105 2   
   108  104  114 1   
   109  106  107 1   
   110  106  112 1   
   111  106  113 1   
   112  107  108 1   
   113  107  109 1   
   114  114  115 1   
   115  114  125 1   
   116  115  116 1   
   117  115  118 1   
   118  115  126 1   
   119  116  117 2   
   120  116  134 1   
   121  118  119 1   
   122  118  127 1   
   123  118  128 1   
   124  119  120 ar  
   125  119  121 ar  
   126  120  122 ar  
   127  120  129 1   
   128  121  123 ar  
   129  121  130 1   
   130  122  124 ar  
   131  122  131 1   
   132  123  124 ar  
   133  123  132 1   
   134  124  133 1   
   135  134  135 1   
   136  134  140 1   
   137  135  136 1   
   138  135  138 1   
   139  135  141 1   
   140  136  137 2   
   141  136  148 1   
   142  138  139 1   
   143  138  142 1   
   144  138  143 1   
   145  139  140 1   
   146  139  144 1   
   147  139  145 1   
   148  140  146 1   
   149  140  147 1   
   150  148  149 1   
   151  148  157 1   
   152  149  150 1   
   153  149  152 1   
   154  149  158 1   
   155  150  151 2   
   156  150  163 1   
   157  152  153 1   
   158  152  159 1   
   159  152  160 1   
   160  153  154 1   
   161  153  161 1   
   162  153  162 1   
   163  154  155 1   
   164  154  156 1   
   165  163  164 1   
   166  163  168 1   
   167  164  165 1   
   168  164  166 1   
   169  164  167 1   
   170  170  171 1   
   171  170  172 1   
   172  173  174 1   
   173  173  175 1   
   174  176  177 1   
   175  176  178 1   
   176  179  180 1   
   177  179  181 1   
@<TRIPOS>SUBSTRUCTURE
     1 MOL         1 TEMP              0 ****  ****    0 ROOT
