@<TRIPOS>MOLECULE
MOL
  181   177     1     0     0
SMALL
resp


@<TRIPOS>ATOM
      1 C1          4.4160   -1.2010    3.0050 c3        1 MOL     -0.585899
      2 C2          5.7780   -0.6010    2.6110 c         1 MOL      0.612396
      3 O1          5.9190    0.5110    2.1040 o         1 MOL     -0.606432
      4 H1          4.2960   -1.1490    4.0880 hc        1 MOL      0.170366
      5 H2          3.6170   -0.6380    2.5240 hc        1 MOL      0.170366
      6 H3          4.3720   -2.2420    2.6850 hc        1 MOL      0.170366
      7 N1          6.8440   -1.3310    2.8550 n         1 MOL     -0.277275
      8 C3          8.2650   -1.0190    2.6070 c3        1 MOL     -0.061964
      9 C4          8.5250   -0.9140    1.0620 c         1 MOL      0.577763
     10 O2          8.4960   -1.9470    0.3900 o         1 MOL     -0.474861
     11 C5          9.1680   -2.0700    3.2630 c3        1 MOL     -0.249424
     12 C6         10.6440   -1.7780    3.0550 c         1 MOL      0.762110
     13 O3         11.4070   -2.6750    2.6870 o         1 MOL     -0.741359
     14 O4         11.0430   -0.6190    3.3270 o         1 MOL     -0.741359
     15 H4          6.6150   -2.2500    3.2120 hn        1 MOL      0.199686
     16 H5          8.4500   -0.1140    3.1780 h1        1 MOL      0.056755
     17 H6          9.0030   -3.0670    2.8340 hc        1 MOL      0.050510
     18 H7          8.9540   -2.0810    4.3280 hc        1 MOL      0.050510
     19 N2          8.8030    0.2930    0.5710 n         1 MOL     -0.508435
     20 C7          8.8860    0.4870   -0.8730 c3        1 MOL      0.352248
     21 C8          7.6280    0.0920   -1.6210 c         1 MOL      0.478251
     22 O5          7.7130   -0.4710   -2.7080 o         1 MOL     -0.535575
     23 C9          9.2440    1.9860   -1.2220 c3        1 MOL     -0.371426
     24 H8          8.9320    1.0620    1.2240 hn        1 MOL      0.298922
     25 H9          9.6780   -0.1040   -1.3320 h1        1 MOL      0.022358
     26 H10         9.0470    2.2810   -2.2590 hc        1 MOL      0.088204
     27 H11         8.7070    2.5830   -0.4690 hc        1 MOL      0.088204
     28 H12        10.2740    2.2210   -0.9720 hc        1 MOL      0.088204
     29 N3          6.4890    0.2370   -0.9340 n         1 MOL     -0.756369
     30 C10         5.2540   -0.4490   -1.1230 c3        1 MOL      0.181829
     31 C11         4.6950   -0.1590   -2.5290 c         1 MOL      0.561697
     32 O6          3.8400   -0.9540   -2.9500 o         1 MOL     -0.573481
     33 C12         5.4500   -1.9220   -0.7760 c3        1 MOL     -0.176405
     34 C13         4.1590   -2.8080   -0.8040 c         1 MOL      0.806756
     35 O7          4.1090   -3.8080   -1.5530 o         1 MOL     -0.779355
     36 O8          3.1710   -2.4460   -0.1530 o         1 MOL     -0.779355
     37 H13         6.4250    0.7630   -0.0800 hn        1 MOL      0.362177
     38 H14         4.4730   -0.0390   -0.4840 h1        1 MOL      0.062409
     39 H15         5.7410   -1.8880    0.2690 hc        1 MOL      0.061629
     40 H16         6.3010   -2.2980   -1.3340 hc        1 MOL      0.061629
     41 N4          5.2080    0.8480   -3.2580 n         1 MOL     -0.185407
     42 C14         4.7210    1.1970   -4.6110 c3        1 MOL     -0.298840
     43 C15         3.3000    1.7750   -4.6180 c         1 MOL      0.569287
     44 O9          2.7170    1.8660   -5.6690 o         1 MOL     -0.556679
     45 H17         6.0400    1.2900   -2.9040 hn        1 MOL      0.248328
     46 H18         4.7140    0.3110   -5.2460 h1        1 MOL      0.142127
     47 H19         5.4610    1.8990   -4.9900 h1        1 MOL      0.142127
     48 N5          2.7860    2.3080   -3.5040 n         1 MOL     -0.456718
     49 C16         1.5260    2.9650   -3.3370 c3        1 MOL      0.427833
     50 C17         1.7350    4.3060   -2.6830 c         1 MOL      0.346445
     51 O10         2.7920    4.7780   -2.3200 o         1 MOL     -0.511088
     52 C18         0.5520    1.9440   -2.6960 c3        1 MOL      0.001038
     53 C19        -0.8980    2.1930   -3.0650 c         1 MOL      0.424016
     54 N6         -1.7260    1.1920   -3.0210 n         1 MOL     -0.579013
     55 O11        -1.2850    3.2330   -3.5800 o         1 MOL     -0.517093
     56 H20         3.4610    2.3450   -2.7470 hn        1 MOL      0.153318
     57 H21         1.1020    3.1120   -4.3300 h1        1 MOL     -0.020950
     58 H22         0.6780    1.9660   -1.6170 hc        1 MOL      0.033379
     59 H23         0.7900    0.9220   -3.0110 hc        1 MOL      0.033379
     60 H24        -1.5830    0.3170   -2.5440 hn        1 MOL      0.305885
     61 H25        -2.6490    1.4250   -3.3690 hn        1 MOL      0.305885
     62 N7          0.6330    5.0520   -2.4340 n         1 MOL     -0.225246
     63 C20         0.6340    6.2430   -1.5870 c3        1 MOL     -0.113204
     64 C21        -0.7460    6.5440   -0.9430 c         1 MOL      0.467277
     65 O12        -1.7660    6.2660   -1.5540 o         1 MOL     -0.443872
     66 H26        -0.2440    4.7390   -2.8160 hn        1 MOL      0.137464
     67 H27         0.9780    7.0700   -2.2050 h1        1 MOL      0.075804
     68 H28         1.3510    6.1330   -0.7720 h1        1 MOL      0.075804
     69 N8         -0.7310    7.0770    0.2530 n         1 MOL     -0.338023
     70 C22        -1.9280    7.2360    1.0870 c3        1 MOL     -0.330936
     71 C23        -2.3430    5.9470    1.7640 c         1 MOL      0.545233
     72 O13        -3.5480    5.9630    2.1740 o         1 MOL     -0.547967
     73 C24        -1.7500    8.3770    2.0740 c3        1 MOL      0.518233
     74 C25        -0.7200    8.0380    3.1100 c3        1 MOL     -0.260216
     75 O14        -1.3040    9.5070    1.3870 oh        1 MOL     -0.661851
     76 H29         0.1480    7.3210    0.6810 hn        1 MOL      0.245505
     77 H30        -2.7630    7.4630    0.4340 h1        1 MOL      0.163262
     78 H31        -2.6580    8.5060    2.6590 h1        1 MOL      0.024240
     79 H32        -0.6060    9.3220    0.7400 ho        1 MOL      0.392759
     80 H33        -0.7630    8.7810    3.9100 hc        1 MOL      0.054951
     81 H34        -0.8730    7.0370    3.5310 hc        1 MOL      0.054951
     82 H35         0.2770    7.9490    2.6930 hc        1 MOL      0.054951
     83 N9         -1.5140    4.8620    1.8190 n         1 MOL     -0.318341
     84 C26        -1.9690    3.5450    2.2580 c3        1 MOL      0.097540
     85 C27        -1.5650    2.4330    1.2990 c         1 MOL      0.479135
     86 O15        -0.5780    2.5350    0.5500 o         1 MOL     -0.493988
     87 C28        -1.5820    3.3020    3.7350 c3        1 MOL      0.116742
     88 C29        -0.1450    3.2590    4.0550 c3        1 MOL     -0.050196
     89 C30        -2.1630    4.2680    4.7580 c3        1 MOL     -0.336269
     90 C31         0.7820    4.4140    3.7600 c3        1 MOL     -0.179547
     91 H36        -0.6060    4.9320    1.3850 hn        1 MOL      0.228356
     92 H37        -3.0330    3.4740    2.0980 h1        1 MOL      0.026745
     93 H38        -1.9550    2.2960    3.9460 hc        1 MOL     -0.015979
     94 H39         0.3770    2.4650    3.5240 hc        1 MOL      0.056731
     95 H40        -0.1350    3.0700    5.1300 hc        1 MOL      0.056731
     96 H41        -3.2040    4.4990    4.5150 hc        1 MOL      0.082628
     97 H42        -2.1480    3.7660    5.7280 hc        1 MOL      0.082628
     98 H43        -1.5940    5.1970    4.7520 hc        1 MOL      0.082628
     99 H44         1.7130    3.9650    4.1290 hc        1 MOL      0.047883
    100 H45         0.9110    4.5400    2.6960 hc        1 MOL      0.047883
    101 H46         0.6700    5.3790    4.2710 hc        1 MOL      0.047883
    102 N10        -2.1800    1.2920    1.4520 n         1 MOL     -0.389007
    103 C32        -2.0610    0.1140    0.6390 c3        1 MOL      0.057278
    104 C33        -3.3050   -0.3670   -0.1590 c         1 MOL      0.553518
    105 O16        -3.4340   -1.5090   -0.6460 o         1 MOL     -0.577639
    106 C34        -1.4570   -1.0680    1.4270 c3        1 MOL      0.257751
    107 C35        -0.5550   -1.9590    0.5740 c         1 MOL      0.598780
    108 O17        -0.1990   -1.8000   -0.6220 o         1 MOL     -0.702478
    109 O18         0.0730   -2.8920    1.1570 o         1 MOL     -0.702478
    110 H47        -2.6600    1.1890    2.3410 hn        1 MOL      0.221121
    111 H48        -1.3040    0.3830   -0.1010 h1        1 MOL      0.038297
    112 H49        -2.1850   -1.7610    1.8400 hc        1 MOL     -0.086840
    113 H50        -0.9280   -0.5840    2.2490 hc        1 MOL     -0.086840
    114 N11        -4.2810    0.4970   -0.3700 n         1 MOL     -0.397634
    115 C36        -5.5930    0.0960   -0.8860 c3        1 MOL      0.073918
    116 C37        -6.1930   -1.0670   -0.0750 c         1 MOL      0.118812
    117 O19        -6.2030   -0.9170    1.1590 o         1 MOL     -0.424450
    118 C38        -6.6230    1.2550   -0.8460 c3        1 MOL     -0.185463
    119 C39        -8.0450    0.9710   -1.2390 ca        1 MOL     -0.067152
    120 C40        -8.4580    1.0370   -2.5400 ca        1 MOL     -0.024210
    121 C41        -8.9470    0.6450   -0.1890 ca        1 MOL     -0.024210
    122 C42        -9.8410    0.6120   -2.8400 ca        1 MOL     -0.212987
    123 C43       -10.2950    0.4060   -0.4730 ca        1 MOL     -0.212987
    124 C44       -10.6920    0.3170   -1.7800 ca        1 MOL     -0.025052
    125 H51        -4.1910    1.4590   -0.0930 hn        1 MOL      0.232536
    126 H52        -5.3850   -0.1340   -1.9340 h1        1 MOL      0.079623
    127 H53        -6.2680    2.1220   -1.4230 hc        1 MOL      0.110458
    128 H54        -6.7110    1.6600    0.1640 hc        1 MOL      0.110458
    129 H55        -7.8400    1.4380   -3.3370 ha        1 MOL      0.102978
    130 H56        -8.6320    0.6110    0.8450 ha        1 MOL      0.102978
    131 H57       -10.0880    0.4240   -3.8780 ha        1 MOL      0.131123
    132 H58       -11.0350    0.2700    0.3070 ha        1 MOL      0.131123
    133 H59       -11.7050    0.0080   -1.9890 ha        1 MOL      0.084120
    134 N12        -6.7760   -2.1610   -0.6750 n         1 MOL      0.063920
    135 C45        -7.5350   -3.1170    0.1030 c3        1 MOL      0.208684
    136 C46        -6.7260   -3.7880    1.2290 c         1 MOL      0.143432
    137 O20        -7.3300   -4.1710    2.2460 o         1 MOL     -0.515304
    138 C47        -8.1220   -4.0940   -0.9780 c3        1 MOL      0.011712
    139 C48        -8.2140   -3.2790   -2.2380 c3        1 MOL     -0.185919
    140 C49        -6.9830   -2.3910   -2.1080 c3        1 MOL      0.126080
    141 H60        -8.3420   -2.5520    0.5590 h1        1 MOL      0.020217
    142 H61        -7.4320   -4.9210   -1.0910 hc        1 MOL      0.017997
    143 H62        -9.1010   -4.4640   -0.6670 hc        1 MOL      0.017997
    144 H63        -8.1030   -3.8450   -3.1700 hc        1 MOL      0.048968
    145 H64        -8.9990   -2.5250   -2.2760 hc        1 MOL      0.048968
    146 H65        -6.1750   -2.9590   -2.5810 h1        1 MOL     -0.000025
    147 H66        -7.1150   -1.4420   -2.6130 h1        1 MOL     -0.000025
    148 N13        -5.4290   -3.9920    1.0740 n         1 MOL     -0.033995
    149 C50        -4.5460   -4.6500    2.0090 c3        1 MOL     -0.029229
    150 C51        -4.3740   -3.9060    3.3640 c         1 MOL      0.375866
    151 O21        -3.9600   -4.4920    4.3330 o         1 MOL     -0.528783
    152 C52        -3.1980   -4.7340    1.4180 c3        1 MOL      0.130119
    153 C53        -2.9290   -5.7580    0.3110 c3        1 MOL     -0.291539
    154 C54        -1.5020   -5.4450   -0.2530 c         1 MOL      0.690736
    155 O22        -0.4450   -5.7950    0.2550 o         1 MOL     -0.695798
    156 O23        -1.4080   -4.8710   -1.3330 o         1 MOL     -0.695798
    157 H67        -5.0110   -3.7520    0.1790 hn        1 MOL      0.150260
    158 H68        -4.8510   -5.6660    2.2480 h1        1 MOL      0.070143
    159 H69        -2.4560   -4.8560    2.2020 hc        1 MOL      0.021387
    160 H70        -3.0190   -3.7510    0.9780 hc        1 MOL      0.021387
    161 H71        -3.8300   -5.7440   -0.2970 hc        1 MOL      0.034567
    162 H72        -2.9700   -6.7390    0.7930 hc        1 MOL      0.034567
    163 N14        -4.7050   -2.6000    3.4150 n         1 MOL     -0.022164
    164 C55        -4.6520   -1.8680    4.6890 c3        1 MOL     -0.303077
    165 H73        -4.6800   -2.5770    5.5170 h1        1 MOL      0.105764
    166 H74        -3.7300   -1.2890    4.7380 h1        1 MOL      0.105764
    167 H75        -5.5070   -1.1950    4.7580 h1        1 MOL      0.105764
    168 H76        -5.0170   -2.1160    2.5840 hn        1 MOL      0.143007
    169 Ca1         1.2220   -4.0150   -0.9450 Ca        1 MOL      1.750867
    170 O24         2.7060   -6.7690   -0.7470 oh        1 MOL     -0.824476
    171 H77         2.4330   -7.5230   -1.2760 ho        1 MOL      0.399250
    172 H78         3.6620   -6.7440   -0.8440 ho        1 MOL      0.399250
    173 O25         0.7370   -5.7330   -2.8920 oh        1 MOL     -0.824476
    174 H79         1.3980   -6.4230   -2.8820 ho        1 MOL      0.399250
    175 H80        -0.0450   -6.1410   -3.2670 ho        1 MOL      0.399250
    176 O26         2.3720   -4.9520    1.3200 oh        1 MOL     -0.824476
    177 H81         3.0280   -4.6780    1.9650 ho        1 MOL      0.399250
    178 H82         2.5490   -5.8870    1.1880 ho        1 MOL      0.399250
    179 O27         1.6990   -2.5180   -3.2400 oh        1 MOL     -0.824476
    180 H83         2.4350   -1.9370   -3.0690 ho        1 MOL      0.399250
    181 H84         1.7610   -2.6980   -4.1860 ho        1 MOL      0.399250
@<TRIPOS>BOND
     1    1    2 1   
     2    1    4 1   
     3    1    5 1   
     4    1    6 1   
     5    2    3 2   
     6    2    7 1   
     7    7    8 1   
     8    7   15 1   
     9    8    9 1   
    10    8   11 1   
    11    8   16 1   
    12    9   10 2   
    13    9   19 1   
    14   11   12 1   
    15   11   17 1   
    16   11   18 1   
    17   12   13 1   
    18   12   14 1   
    19   19   20 1   
    20   19   24 1   
    21   20   21 1   
    22   20   23 1   
    23   20   25 1   
    24   21   22 2   
    25   21   29 1   
    26   23   26 1   
    27   23   27 1   
    28   23   28 1   
    29   29   30 1   
    30   29   37 1   
    31   30   31 1   
    32   30   33 1   
    33   30   38 1   
    34   31   32 2   
    35   31   41 1   
    36   33   34 1   
    37   33   39 1   
    38   33   40 1   
    39   34   35 1   
    40   34   36 1   
    41   41   42 1   
    42   41   45 1   
    43   42   43 1   
    44   42   46 1   
    45   42   47 1   
    46   43   44 2   
    47   43   48 1   
    48   48   49 1   
    49   48   56 1   
    50   49   50 1   
    51   49   52 1   
    52   49   57 1   
    53   50   51 2   
    54   50   62 1   
    55   52   53 1   
    56   52   58 1   
    57   52   59 1   
    58   53   54 1   
    59   53   55 2   
    60   54   60 1   
    61   54   61 1   
    62   62   63 1   
    63   62   66 1   
    64   63   64 1   
    65   63   67 1   
    66   63   68 1   
    67   64   65 2   
    68   64   69 1   
    69   69   70 1   
    70   69   76 1   
    71   70   71 1   
    72   70   73 1   
    73   70   77 1   
    74   71   72 2   
    75   71   83 1   
    76   73   74 1   
    77   73   75 1   
    78   73   78 1   
    79   74   80 1   
    80   74   81 1   
    81   74   82 1   
    82   75   79 1   
    83   83   84 1   
    84   83   91 1   
    85   84   85 1   
    86   84   87 1   
    87   84   92 1   
    88   85   86 2   
    89   85  102 1   
    90   87   88 1   
    91   87   89 1   
    92   87   93 1   
    93   88   90 1   
    94   88   94 1   
    95   88   95 1   
    96   89   96 1   
    97   89   97 1   
    98   89   98 1   
    99   90   99 1   
   100   90  100 1   
   101   90  101 1   
   102  102  103 1   
   103  102  110 1   
   104  103  104 1   
   105  103  106 1   
   106  103  111 1   
   107  104  105 2   
   108  104  114 1   
   109  106  107 1   
   110  106  112 1   
   111  106  113 1   
   112  107  108 1   
   113  107  109 1   
   114  114  115 1   
   115  114  125 1   
   116  115  116 1   
   117  115  118 1   
   118  115  126 1   
   119  116  117 2   
   120  116  134 1   
   121  118  119 1   
   122  118  127 1   
   123  118  128 1   
   124  119  120 ar  
   125  119  121 ar  
   126  120  122 ar  
   127  120  129 1   
   128  121  123 ar  
   129  121  130 1   
   130  122  124 ar  
   131  122  131 1   
   132  123  124 ar  
   133  123  132 1   
   134  124  133 1   
   135  134  135 1   
   136  134  140 1   
   137  135  136 1   
   138  135  138 1   
   139  135  141 1   
   140  136  137 2   
   141  136  148 1   
   142  138  139 1   
   143  138  142 1   
   144  138  143 1   
   145  139  140 1   
   146  139  144 1   
   147  139  145 1   
   148  140  146 1   
   149  140  147 1   
   150  148  149 1   
   151  148  157 1   
   152  149  150 1   
   153  149  152 1   
   154  149  158 1   
   155  150  151 2   
   156  150  163 1   
   157  152  153 1   
   158  152  159 1   
   159  152  160 1   
   160  153  154 1   
   161  153  161 1   
   162  153  162 1   
   163  154  155 1   
   164  154  156 1   
   165  163  164 1   
   166  163  168 1   
   167  164  165 1   
   168  164  166 1   
   169  164  167 1   
   170  170  171 1   
   171  170  172 1   
   172  173  174 1   
   173  173  175 1   
   174  176  177 1   
   175  176  178 1   
   176  179  180 1   
   177  179  181 1   
@<TRIPOS>SUBSTRUCTURE
     1 MOL         1 TEMP              0 ****  ****    0 ROOT
