@<TRIPOS>MOLECULE
MOL
  179   176     1     0     0
SMALL
resp


@<TRIPOS>ATOM
      1 C1          1.2780   -5.3920    5.3690 c3        1 MOL     -0.408254
      2 C2          1.3160   -4.6290    4.0090 c         1 MOL      0.691117
      3 O1          0.3010   -4.6870    3.2570 o         1 MOL     -0.642676
      4 H1          2.2930   -5.5000    5.7530 hc        1 MOL      0.126458
      5 H2          0.6770   -4.8320    6.0850 hc        1 MOL      0.126458
      6 H3          0.8410   -6.3800    5.2200 hc        1 MOL      0.126458
      7 N1          2.4200   -4.0570    3.5110 n         1 MOL     -0.491881
      8 C3          2.7610   -3.4680    2.1850 c3        1 MOL     -0.009861
      9 C4          3.1050   -4.6580    1.2180 c         1 MOL      0.550403
     10 O2          4.1090   -5.3200    1.2650 o         1 MOL     -0.526683
     11 C5          3.9300   -2.5880    2.3660 c3        1 MOL      0.081999
     12 C6          3.8710   -1.5650    1.2410 c         1 MOL      0.252629
     13 O3          4.3300   -0.4370    1.3840 o         1 MOL     -0.566177
     14 O4          3.4180   -1.9370    0.1140 o         1 MOL     -0.566177
     15 H4          3.1220   -4.0040    4.2310 hn        1 MOL      0.283946
     16 H5          1.9190   -2.9350    1.7440 h1        1 MOL      0.008071
     17 H6          4.8880   -3.1080    2.3430 hc        1 MOL      0.038926
     18 H7          3.8660   -2.1950    3.3880 hc        1 MOL      0.038926
     19 N2          2.2250   -4.8670    0.2740 n         1 MOL     -0.196084
     20 C7          2.3380   -5.5820   -1.0350 c3        1 MOL     -0.101442
     21 C8          3.5580   -5.1580   -1.9100 c         1 MOL      0.536340
     22 O5          3.8800   -5.8030   -2.8560 o         1 MOL     -0.562977
     23 C9          1.0460   -5.4000   -1.8060 c3        1 MOL     -0.057543
     24 C10         0.7290   -4.0300   -2.3460 c3        1 MOL      0.119237
     25 C11        -0.7860   -3.7870   -2.7670 c3        1 MOL     -0.059659
     26 C12        -0.9800   -2.2830   -3.2080 c3        1 MOL      0.026508
     27 N3         -2.3840   -2.0890   -3.7190 n4        1 MOL     -0.326726
     28 H8          1.4120   -4.2900    0.4290 hn        1 MOL      0.120807
     29 H9          2.5310   -6.6310   -0.8210 h1        1 MOL      0.116117
     30 H10         0.2750   -5.6870   -1.0980 hc        1 MOL      0.037239
     31 H11         0.9420   -6.1220   -2.6140 hc        1 MOL      0.037239
     32 H12         1.4010   -3.7980   -3.1660 hc        1 MOL      0.016308
     33 H13         0.8250   -3.3220   -1.5220 hc        1 MOL      0.016308
     34 H14        -1.3480   -3.8460   -1.8380 hc        1 MOL      0.029541
     35 H15        -1.1430   -4.5470   -3.4660 hc        1 MOL      0.029541
     36 H16        -0.2660   -1.9540   -3.9670 hx        1 MOL      0.063127
     37 H17        -0.8160   -1.6940   -2.3130 hx        1 MOL      0.063127
     38 H18        -2.7220   -1.1500   -3.8570 hn        1 MOL      0.274770
     39 H19        -2.4820   -2.5590   -4.6050 hn        1 MOL      0.274770
     40 H20        -3.0540   -2.5840   -3.1440 hn        1 MOL      0.274770
     41 N4          4.2580   -4.0500   -1.6410 n         1 MOL     -0.170444
     42 C13         5.4950   -3.6540   -2.4160 c3        1 MOL      0.186267
     43 C14         6.6010   -3.2510   -1.4180 c         1 MOL      0.312300
     44 O6          7.7660   -3.1160   -1.8090 o         1 MOL     -0.511532
     45 C15         5.1170   -2.6660   -3.4960 c3        1 MOL     -0.372016
     46 C16         4.3940   -1.4800   -2.9350 c         1 MOL      0.811942
     47 O7          3.1330   -1.3900   -3.0250 o         1 MOL     -0.784349
     48 O8          4.9040   -0.6140   -2.2260 o         1 MOL     -0.784349
     49 H21         3.8810   -3.4850   -0.8920 hn        1 MOL     -0.045137
     50 H22         5.9600   -4.4640   -2.9700 h1        1 MOL      0.096408
     51 H23         4.5420   -3.2420   -4.2210 hc        1 MOL      0.115352
     52 H24         6.0330   -2.3020   -3.9480 hc        1 MOL      0.115352
     53 N5          6.3540   -2.7910   -0.1430 n         1 MOL      0.037604
     54 C17         7.2830   -2.2940    0.8720 c3        1 MOL     -0.207796
     55 C18         7.6590   -0.7710    0.8050 c         1 MOL      0.510197
     56 O9          8.6150   -0.3360    1.4410 o         1 MOL     -0.564125
     57 H25         5.3860   -2.7050    0.1340 hn        1 MOL     -0.085648
     58 H26         8.1150   -2.9720    1.0080 h1        1 MOL      0.128637
     59 H27         6.8910   -2.4350    1.8820 h1        1 MOL      0.128637
     60 N6          6.9420    0.0130   -0.0130 n         1 MOL     -0.321668
     61 C19         7.1200    1.4910   -0.1440 c3        1 MOL      0.275745
     62 C20         5.8530    2.3350   -0.2910 c         1 MOL      0.329480
     63 O10         4.7350    1.8660   -0.4680 o         1 MOL     -0.393981
     64 C21         8.1130    1.6520   -1.3620 c3        1 MOL     -0.373211
     65 C22         8.3390    3.0870   -1.7960 c         1 MOL      0.658367
     66 N7          9.1970    3.8550   -1.1460 n         1 MOL     -0.758700
     67 O11         7.6680    3.5870   -2.6960 o         1 MOL     -0.579278
     68 H28         6.1550   -0.4060   -0.4830 hn        1 MOL      0.307870
     69 H29         7.5180    1.9230    0.7780 h1        1 MOL      0.017191
     70 H30         7.8000    1.0070   -2.1860 hc        1 MOL      0.127524
     71 H31         9.1170    1.3590   -1.0350 hc        1 MOL      0.127524
     72 H32         9.7690    3.5420   -0.3770 hn        1 MOL      0.356614
     73 H33         9.3780    4.7270   -1.6110 hn        1 MOL      0.356614
     74 N8          5.9400    3.6960   -0.2310 n         1 MOL     -0.255585
     75 C23         4.8050    4.6110   -0.4050 c3        1 MOL     -0.084926
     76 C24         3.7320    4.4670    0.6540 c         1 MOL      0.616893
     77 O12         4.0300    4.1050    1.7810 o         1 MOL     -0.533724
     78 H34         6.8670    4.0520   -0.0530 hn        1 MOL      0.219332
     79 H35         4.3240    4.4140   -1.3630 h1        1 MOL      0.081732
     80 H36         5.1430    5.6440   -0.4550 h1        1 MOL      0.081732
     81 N9          2.5360    4.7650    0.2810 n         1 MOL     -0.615790
     82 C25         1.3570    4.4930    1.1490 c3        1 MOL      0.158949
     83 C26         1.2310    2.9240    1.2500 c         1 MOL      0.858114
     84 O13         1.7130    2.0990    0.4270 o         1 MOL     -0.781586
     85 C27         0.1030    5.1710    0.5990 c3        1 MOL     -0.211794
     86 C28         0.2980    6.6750    0.3300 ca        1 MOL      0.123261
     87 C29         0.0790    7.6430    1.3890 ca        1 MOL     -0.181344
     88 C30         0.3970    7.0420   -1.0180 ca        1 MOL     -0.181344
     89 C31         0.0540    8.9820    1.0240 ca        1 MOL     -0.262043
     90 C32         0.3220    8.4160   -1.2850 ca        1 MOL     -0.262043
     91 C33         0.1540    9.3720   -0.2950 ca        1 MOL      0.387145
     92 O14        -0.0210   10.6920   -0.5880 oh        1 MOL     -0.514148
     93 H37         2.3970    5.2090   -0.6190 hn        1 MOL      0.312513
     94 H38         1.4190    4.8050    2.1910 h1        1 MOL      0.049239
     95 H39        -0.6250    5.0420    1.3980 hc        1 MOL      0.061040
     96 H40        -0.2180    4.5910   -0.2810 hc        1 MOL      0.061040
     97 H41        -0.0740    7.3140    2.4070 ha        1 MOL      0.153143
     98 H42         0.4550    6.2620   -1.7600 ha        1 MOL      0.153143
     99 H43        -0.0670    9.6550    1.8690 ha        1 MOL      0.156701
    100 H44         0.2620    8.7150   -2.3230 ha        1 MOL      0.156701
    101 H45        -0.1710   11.2320    0.1760 ho        1 MOL      0.388847
    102 N10         0.6130    2.3890    2.3030 n         1 MOL     -0.901328
    103 C34         0.3600    1.0290    2.7140 c3        1 MOL      0.356305
    104 C35        -0.0820    0.1120    1.6060 c         1 MOL      0.716764
    105 O15         0.7400   -0.4400    0.8410 o         1 MOL     -0.555743
    106 C36         1.5310    0.4740    3.5980 c3        1 MOL      0.368238
    107 C37         1.2420   -0.9240    4.2560 c3        1 MOL     -0.133967
    108 C38         2.1650    1.4230    4.6040 c3        1 MOL     -0.319355
    109 C39         0.0630   -0.8900    5.2970 c3        1 MOL     -0.396193
    110 H46         0.2720    3.0950    2.9340 hn        1 MOL      0.364431
    111 H47        -0.5190    1.0140    3.3600 h1        1 MOL     -0.053106
    112 H48         2.3130    0.2160    2.8870 hc        1 MOL     -0.031469
    113 H49         2.2310   -1.2020    4.6270 hc        1 MOL      0.073303
    114 H50         0.9270   -1.6520    3.5120 hc        1 MOL      0.073303
    115 H51         2.5680    2.2780    4.0600 hc        1 MOL      0.074021
    116 H52         1.4060    1.7420    5.3170 hc        1 MOL      0.074021
    117 H53         2.8970    0.9020    5.2200 hc        1 MOL      0.074021
    118 H54        -0.7780   -0.4170    4.7940 hc        1 MOL      0.093693
    119 H55        -0.1540   -1.9530    5.4260 hc        1 MOL      0.093693
    120 H56         0.3670   -0.3600    6.2010 hc        1 MOL      0.093693
    121 N11        -1.3660   -0.2010    1.5430 n         1 MOL     -0.802644
    122 C40        -1.9460   -1.2920    0.7370 c3        1 MOL      0.394865
    123 C41        -3.2940   -1.1230    0.1540 c         1 MOL      0.397429
    124 O16        -3.6070   -1.8320   -0.8090 o         1 MOL     -0.530861
    125 C42        -1.8940   -2.5940    1.5780 c3        1 MOL     -0.123033
    126 O17        -0.5510   -2.9660    1.6140 oh        1 MOL     -0.369193
    127 H57        -2.0040    0.2480    2.1930 hn        1 MOL      0.354865
    128 H58        -1.2160   -1.5030   -0.0430 h1        1 MOL      0.059054
    129 H59        -2.5730   -3.3080    1.1090 h1        1 MOL      0.066026
    130 H60        -2.1930   -2.3110    2.5940 h1        1 MOL      0.066026
    131 H61        -0.4140   -3.5780    2.3410 ho        1 MOL      0.407865
    132 N12        -4.1790   -0.3420    0.7560 n         1 MOL     -0.473323
    133 C43        -5.5670   -0.1380    0.4000 c3        1 MOL      0.223770
    134 C44        -5.7700    0.6090   -0.9480 c         1 MOL      0.616570
    135 O18        -4.8970    1.4250   -1.2530 o         1 MOL     -0.607913
    136 C45        -6.2820    0.5290    1.5540 c3        1 MOL     -0.378553
    137 H62        -3.8530    0.2030    1.5390 hn        1 MOL      0.267102
    138 H63        -5.9690   -1.1270    0.1750 h1        1 MOL      0.086061
    139 H64        -7.3660    0.5450    1.4330 hc        1 MOL      0.111660
    140 H65        -6.0650   -0.1840    2.3510 hc        1 MOL      0.111660
    141 H66        -5.9540    1.5500    1.7440 hc        1 MOL      0.111660
    142 N13        -6.7570    0.3160   -1.7590 n         1 MOL     -0.692359
    143 C46        -7.7970   -0.6120   -1.5450 c3        1 MOL      0.448319
    144 C47        -9.0690   -0.2550   -2.4370 c         1 MOL      0.339321
    145 O19        -8.8980   -0.1410   -3.6070 o         1 MOL     -0.497377
    146 C48        -7.3760   -2.0200   -1.9370 c3        1 MOL     -0.250700
    147 H67        -6.6610    0.8910   -2.5920 hn        1 MOL      0.351549
    148 H68        -8.1650   -0.5900   -0.5200 h1        1 MOL     -0.094741
    149 H69        -8.1070   -2.8100   -1.7360 hc        1 MOL      0.071461
    150 H70        -7.0950   -2.0330   -2.9870 hc        1 MOL      0.071461
    151 H71        -6.6010   -2.3830   -1.2610 hc        1 MOL      0.071461
    152 N14       -10.2930   -0.3920   -1.9080 n         1 MOL     -0.329031
    153 C49       -10.6340   -0.8390   -0.5700 c3        1 MOL     -0.019705
    154 C50       -10.3580    0.1090    0.5690 c         1 MOL      0.594833
    155 O20       -10.1740   -0.4330    1.6380 o         1 MOL     -0.544607
    156 C51       -12.1600   -1.2090   -0.4420 c3        1 MOL     -0.053087
    157 C52       -13.3100   -0.2230   -0.7020 c3        1 MOL     -0.206904
    158 C53       -14.4390   -0.4070    0.2360 c         1 MOL      0.775096
    159 O21       -14.7460    0.5240    1.0420 o         1 MOL     -0.683080
    160 O22       -15.1810   -1.4030    0.2190 o         1 MOL     -0.683080
    161 H72       -11.0110   -0.2710   -2.6080 hn        1 MOL      0.280993
    162 H73       -10.0090   -1.7170   -0.4090 h1        1 MOL      0.040123
    163 H74       -12.2860   -1.6110    0.5690 hc        1 MOL      0.051084
    164 H75       -12.3040   -2.0780   -1.0810 hc        1 MOL      0.051084
    165 H76       -13.7200   -0.3970   -1.6930 hc        1 MOL      0.015048
    166 H77       -12.8980    0.7820   -0.5550 hc        1 MOL      0.015048
    167 N15       -10.3080    1.4200    0.2530 n         1 MOL     -0.220950
    168 C54        -9.7380    2.5140    1.0690 c3        1 MOL     -0.413377
    169 H78        -9.8690    2.2820    2.1260 h1        1 MOL      0.158586
    170 H79        -8.6750    2.6170    0.8480 h1        1 MOL      0.158586
    171 H80       -10.2500    3.4460    0.8350 h1        1 MOL      0.158586
    172 H81       -10.4510    1.6540   -0.7250 hn        1 MOL      0.219376
    173 Ca1         2.7400    0.2190   -1.0310 Ca        1 MOL      1.815064
    174 O23         0.3100    0.2370   -2.2050 oh        1 MOL     -0.898100
    175 H82         0.2280    0.3360   -3.1510 ho        1 MOL      0.429278
    176 H83        -0.4290    0.7240   -1.8510 ho        1 MOL      0.429278
    177 O24         2.9000    1.8860   -3.1660 oh        1 MOL     -0.898100
    178 H84         2.4210    1.7770   -3.9900 ho        1 MOL      0.429278
    179 H85         3.6690    2.4010   -3.4060 ho        1 MOL      0.429278
@<TRIPOS>BOND
     1    1    2 1   
     2    1    4 1   
     3    1    5 1   
     4    1    6 1   
     5    2    3 2   
     6    2    7 1   
     7    7    8 1   
     8    7   15 1   
     9    8    9 1   
    10    8   11 1   
    11    8   16 1   
    12    9   10 2   
    13    9   19 1   
    14   11   12 1   
    15   11   17 1   
    16   11   18 1   
    17   12   13 1   
    18   12   14 1   
    19   19   20 1   
    20   19   28 1   
    21   20   21 1   
    22   20   23 1   
    23   20   29 1   
    24   21   22 2   
    25   21   41 1   
    26   23   24 1   
    27   23   30 1   
    28   23   31 1   
    29   24   25 1   
    30   24   32 1   
    31   24   33 1   
    32   25   26 1   
    33   25   34 1   
    34   25   35 1   
    35   26   27 1   
    36   26   36 1   
    37   26   37 1   
    38   27   38 1   
    39   27   39 1   
    40   27   40 1   
    41   41   42 1   
    42   41   49 1   
    43   42   43 1   
    44   42   45 1   
    45   42   50 1   
    46   43   44 2   
    47   43   53 1   
    48   45   46 1   
    49   45   51 1   
    50   45   52 1   
    51   46   47 1   
    52   46   48 1   
    53   53   54 1   
    54   53   57 1   
    55   54   55 1   
    56   54   58 1   
    57   54   59 1   
    58   55   56 2   
    59   55   60 1   
    60   60   61 1   
    61   60   68 1   
    62   61   62 1   
    63   61   64 1   
    64   61   69 1   
    65   62   63 2   
    66   62   74 1   
    67   64   65 1   
    68   64   70 1   
    69   64   71 1   
    70   65   66 1   
    71   65   67 2   
    72   66   72 1   
    73   66   73 1   
    74   74   75 1   
    75   74   78 1   
    76   75   76 1   
    77   75   79 1   
    78   75   80 1   
    79   76   77 2   
    80   76   81 1   
    81   81   82 1   
    82   81   93 1   
    83   82   83 1   
    84   82   85 1   
    85   82   94 1   
    86   83   84 2   
    87   83  102 1   
    88   85   86 1   
    89   85   95 1   
    90   85   96 1   
    91   86   87 ar  
    92   86   88 ar  
    93   87   89 ar  
    94   87   97 1   
    95   88   90 ar  
    96   88   98 1   
    97   89   91 ar  
    98   89   99 1   
    99   90   91 ar  
   100   90  100 1   
   101   91   92 1   
   102   92  101 1   
   103  102  103 1   
   104  102  110 1   
   105  103  104 1   
   106  103  106 1   
   107  103  111 1   
   108  104  105 2   
   109  104  121 1   
   110  106  107 1   
   111  106  108 1   
   112  106  112 1   
   113  107  109 1   
   114  107  113 1   
   115  107  114 1   
   116  108  115 1   
   117  108  116 1   
   118  108  117 1   
   119  109  118 1   
   120  109  119 1   
   121  109  120 1   
   122  121  122 1   
   123  121  127 1   
   124  122  123 1   
   125  122  125 1   
   126  122  128 1   
   127  123  124 2   
   128  123  132 1   
   129  125  126 1   
   130  125  129 1   
   131  125  130 1   
   132  126  131 1   
   133  132  133 1   
   134  132  137 1   
   135  133  134 1   
   136  133  136 1   
   137  133  138 1   
   138  134  135 2   
   139  134  142 1   
   140  136  139 1   
   141  136  140 1   
   142  136  141 1   
   143  142  143 1   
   144  142  147 1   
   145  143  144 1   
   146  143  146 1   
   147  143  148 1   
   148  144  145 2   
   149  144  152 1   
   150  146  149 1   
   151  146  150 1   
   152  146  151 1   
   153  152  153 1   
   154  152  161 1   
   155  153  154 1   
   156  153  156 1   
   157  153  162 1   
   158  154  155 2   
   159  154  167 1   
   160  156  157 1   
   161  156  163 1   
   162  156  164 1   
   163  157  158 1   
   164  157  165 1   
   165  157  166 1   
   166  158  159 1   
   167  158  160 1   
   168  167  168 1   
   169  167  172 1   
   170  168  169 1   
   171  168  170 1   
   172  168  171 1   
   173  174  175 1   
   174  174  176 1   
   175  177  178 1   
   176  177  179 1   
@<TRIPOS>SUBSTRUCTURE
     1 MOL         1 TEMP              0 ****  ****    0 ROOT
