@<TRIPOS>MOLECULE
MOL
  192   187     1     0     0
SMALL
resp


@<TRIPOS>ATOM
      1 C1         12.2570    5.1370   -1.3530 c3        1 MOL     -0.467647
      2 C2         11.7100    3.8170   -0.7470 c         1 MOL      0.676296
      3 O1         12.2750    2.7280   -1.0150 o         1 MOL     -0.611171
      4 H1         12.1980    5.9300   -0.6090 hc        1 MOL      0.127220
      5 H2         13.2960    4.9970   -1.6530 hc        1 MOL      0.127220
      6 H3         11.6620    5.4120   -2.2240 hc        1 MOL      0.127220
      7 N1         10.6720    3.8110    0.1120 n         1 MOL     -0.128339
      8 C3         10.1320    2.6110    0.7180 c3        1 MOL     -0.586031
      9 C4          8.9650    2.0440   -0.0850 c         1 MOL      0.477848
     10 O2          8.0990    2.7990   -0.4940 o         1 MOL     -0.565870
     11 C5          9.8120    2.8950    2.2760 c3        1 MOL      0.131330
     12 C6          9.0170    4.1420    2.5950 c         1 MOL      0.750082
     13 O3          8.9760    4.5120    3.8180 o         1 MOL     -0.712462
     14 O4          8.5200    4.8370    1.6530 o         1 MOL     -0.712462
     15 H4         10.2500    4.7070    0.3410 hn        1 MOL      0.079951
     16 H5         10.7960    1.7480    0.7360 h1        1 MOL      0.221432
     17 H6         10.7080    2.8160    2.8760 hc        1 MOL      0.023139
     18 H7          9.1260    2.1070    2.6210 hc        1 MOL      0.023139
     19 N2          8.9030    0.7110   -0.2660 n         1 MOL     -0.197273
     20 C7          7.8390   -0.1430   -0.8090 c3        1 MOL     -0.050366
     21 C8          6.9370   -0.3550    0.4380 c         1 MOL      0.678110
     22 O5          7.2380   -1.1640    1.3010 o         1 MOL     -0.545098
     23 C9          8.4650   -1.4820   -1.2770 c3        1 MOL     -0.402382
     24 C10         7.4800   -2.5070   -1.8220 c3        1 MOL      0.215625
     25 C11         8.0280   -3.4980   -2.8820 c3        1 MOL     -0.168360
     26 C12         8.4780   -2.7470   -4.1030 c3        1 MOL      0.165543
     27 N3          8.7930   -3.7720   -5.1370 n4        1 MOL     -0.266921
     28 H8          9.6840    0.2060    0.1400 hn        1 MOL      0.214651
     29 H9          7.2630    0.3530   -1.5920 h1        1 MOL      0.069083
     30 H10         9.0940   -1.8910   -0.4920 hc        1 MOL      0.150086
     31 H11         9.0970   -1.1540   -2.1030 hc        1 MOL      0.150086
     32 H12         6.6230   -1.9890   -2.2590 hc        1 MOL      0.008074
     33 H13         7.0950   -2.9450   -0.8990 hc        1 MOL      0.008074
     34 H14         7.2520   -4.1970   -3.1960 hc        1 MOL      0.058706
     35 H15         8.8030   -4.1070   -2.4250 hc        1 MOL      0.058706
     36 H16         9.3450   -2.1440   -3.8340 hx        1 MOL      0.016363
     37 H17         7.6390   -2.1330   -4.4400 hx        1 MOL      0.016363
     38 H18         8.0610   -4.4650   -5.2430 hn        1 MOL      0.243699
     39 H19         8.9020   -3.3440   -6.0410 hn        1 MOL      0.243699
     40 H20         9.6600   -4.2470   -4.9450 hn        1 MOL      0.243699
     41 N4          5.7730    0.2920    0.4570 n         1 MOL     -0.534852
     42 C13         4.6820    0.0500    1.4540 c3        1 MOL      0.150409
     43 C14         3.2970    0.2390    0.7290 c         1 MOL      0.314432
     44 O6          3.1620    0.9250   -0.2980 o         1 MOL     -0.482370
     45 C15         4.6790    1.0240    2.6010 c3        1 MOL     -0.215171
     46 C16         5.1020    2.4640    2.1710 c         1 MOL      0.704873
     47 O7          4.2790    3.1740    1.4990 o         1 MOL     -0.676308
     48 O8          6.2920    2.9090    2.4140 o         1 MOL     -0.676308
     49 H21         5.5250    1.0060   -0.2150 hn        1 MOL      0.232947
     50 H22         4.7940   -0.9820    1.7820 h1        1 MOL      0.097634
     51 H23         5.4040    0.7620    3.3690 hc        1 MOL      0.064591
     52 H24         3.6860    1.0360    3.0320 hc        1 MOL      0.064591
     53 N5          2.1970   -0.2920    1.1980 n         1 MOL     -0.248844
     54 C17         1.9590   -1.1480    2.4280 c3        1 MOL     -0.106044
     55 C18         2.4570   -2.5600    2.3780 c         1 MOL      0.448318
     56 O9          2.9240   -3.0400    1.3130 o         1 MOL     -0.541764
     57 H25         1.4330   -0.1630    0.5400 hn        1 MOL      0.248412
     58 H26         0.8960   -1.2390    2.6610 h1        1 MOL      0.103501
     59 H27         2.3970   -0.6880    3.3150 h1        1 MOL      0.103501
     60 N6          2.3980   -3.3310    3.4920 n         1 MOL     -0.240852
     61 C19         2.9780   -4.7020    3.4350 c3        1 MOL     -0.022293
     62 C20         2.2930   -5.5890    2.3630 c         1 MOL      0.357227
     63 O10         2.7980   -6.6490    1.9770 o         1 MOL     -0.515105
     64 C21         2.8150   -5.2620    4.8720 c3        1 MOL     -0.192578
     65 C22         1.4520   -4.9380    5.4700 c         1 MOL      0.704411
     66 O11         0.5380   -5.7260    5.2500 o         1 MOL     -0.674131
     67 O12         1.3540   -3.8780    6.1650 o         1 MOL     -0.674131
     68 H28         2.0090   -2.9550    4.3440 hn        1 MOL      0.188329
     69 H29         4.0530   -4.6860    3.2820 h1        1 MOL      0.107588
     70 H30         3.6690   -4.7960    5.3680 hc        1 MOL      0.055748
     71 H31         3.0290   -6.3280    4.9780 hc        1 MOL      0.055748
     72 N7          1.0130   -5.2670    2.0610 n         1 MOL     -0.111573
     73 C23         0.2490   -5.8990    0.9800 c3        1 MOL     -0.020487
     74 C24         0.3590   -5.2400   -0.4280 c         1 MOL      0.393915
     75 O13        -0.2410   -5.7530   -1.4020 o         1 MOL     -0.578132
     76 H32         0.6080   -4.4540    2.5140 hn        1 MOL      0.188169
     77 H33        -0.8010   -5.9670    1.2640 h1        1 MOL      0.074709
     78 H34         0.5750   -6.9390    0.9540 h1        1 MOL      0.074709
     79 N8          0.9930   -4.1360   -0.5130 n         1 MOL     -0.101104
     80 C25         1.1800   -3.2880   -1.7090 c3        1 MOL      0.060165
     81 C26         0.4360   -1.9830   -1.5540 c         1 MOL      0.409651
     82 O14         0.3360   -1.4710   -0.4440 o         1 MOL     -0.449446
     83 C27         2.6500   -3.0480   -1.9240 c3        1 MOL      0.300180
     84 C28         3.4060   -4.3140   -2.1270 c3        1 MOL     -0.565609
     85 O15         2.7710   -2.3950   -3.1470 oh        1 MOL     -0.699848
     86 H35         1.2070   -3.6990    0.3710 hn        1 MOL      0.103882
     87 H36         0.8220   -3.8180   -2.5910 h1        1 MOL      0.055604
     88 H37         3.0460   -2.4670   -1.0900 h1        1 MOL      0.061363
     89 H38         3.5410   -2.7840   -3.5570 ho        1 MOL      0.415799
     90 H39         3.4850   -4.7770   -1.1420 hc        1 MOL      0.142575
     91 H40         2.8880   -4.8680   -2.9120 hc        1 MOL      0.142575
     92 H41         4.4340   -4.1470   -2.4740 hc        1 MOL      0.142575
     93 N9         -0.0270   -1.4140   -2.6680 n         1 MOL     -0.205423
     94 C29        -0.6610   -0.1620   -2.6650 c3        1 MOL     -0.043910
     95 C30        -2.0320   -0.2080   -1.9490 c         1 MOL      0.396567
     96 O16        -2.5160    0.7750   -1.3620 o         1 MOL     -0.512628
     97 C31        -0.7650    0.3010   -4.1190 c3        1 MOL      0.167214
     98 C32         0.4940    0.4850   -4.9940 c3        1 MOL     -0.246723
     99 C33        -1.5500    1.6260   -4.2260 c3        1 MOL     -0.381785
    100 C34         1.4390    1.4800   -4.2810 c3        1 MOL     -0.012285
    101 H42        -0.1320   -2.1010   -3.3980 hn        1 MOL      0.225555
    102 H43        -0.1160    0.5180   -2.0070 h1        1 MOL      0.114749
    103 H44        -1.3810   -0.4430   -4.6360 hc        1 MOL      0.006086
    104 H45         0.3080    0.9290   -5.9690 hc        1 MOL      0.071672
    105 H46         0.9990   -0.4710   -5.1370 hc        1 MOL      0.071672
    106 H47        -1.6910    1.8700   -5.2760 hc        1 MOL      0.111269
    107 H48        -2.5930    1.4570   -3.9430 hc        1 MOL      0.111269
    108 H49        -1.1670    2.4860   -3.6730 hc        1 MOL      0.111269
    109 H50         2.3260    1.6970   -4.8700 hc        1 MOL      0.014199
    110 H51         0.9150    2.3800   -3.9960 hc        1 MOL      0.014199
    111 H52         1.8770    1.1320   -3.3350 hc        1 MOL      0.014199
    112 N10        -2.6780   -1.3690   -1.9020 n         1 MOL     -0.305050
    113 C35        -3.8220   -1.5670   -0.9660 c3        1 MOL     -0.141469
    114 C36        -4.9520   -2.2980   -1.6960 c         1 MOL      0.726296
    115 O17        -4.7710   -3.0490   -2.6140 o         1 MOL     -0.537601
    116 C37        -3.3670   -2.3350    0.2970 c3        1 MOL      0.258764
    117 C38        -2.5900   -3.6120    0.0490 c3        1 MOL     -0.020673
    118 O18        -2.5330   -1.5040    1.0800 oh        1 MOL     -0.616155
    119 H53        -2.2740   -2.0960   -2.4810 hn        1 MOL      0.217336
    120 H54        -4.2220   -0.5990   -0.6590 h1        1 MOL      0.129739
    121 H55        -4.2040   -2.6760    0.9110 h1        1 MOL      0.051387
    122 H56        -2.0100   -0.9400    0.5180 ho        1 MOL      0.405337
    123 H57        -2.2580   -4.0510    0.9800 hc        1 MOL     -0.001774
    124 H58        -3.3100   -4.3330   -0.3270 hc        1 MOL     -0.001774
    125 H59        -1.7800   -3.4150   -0.6570 hc        1 MOL     -0.001774
    126 N11        -6.2100   -2.0500   -1.2940 n         1 MOL     -0.650921
    127 C39        -7.4230   -2.4500   -1.9740 c3        1 MOL      0.031500
    128 C40        -8.5210   -1.3230   -2.0430 c         1 MOL      0.705715
    129 O19        -9.1160   -1.1580   -3.0920 o         1 MOL     -0.574284
    130 C41        -7.9660   -3.7440   -1.2530 c3        1 MOL      0.244870
    131 C42        -9.4230   -4.2190   -1.5930 c3        1 MOL     -0.474757
    132 O20        -7.9770   -3.7060    0.1900 oh        1 MOL     -0.618596
    133 H60        -6.3770   -1.5300   -0.4460 hn        1 MOL      0.301483
    134 H61        -7.1290   -2.7890   -2.9630 h1        1 MOL      0.101736
    135 H62        -7.3720   -4.6090   -1.5610 h1        1 MOL      0.062857
    136 H63        -8.0040   -4.6570    0.3260 ho        1 MOL      0.395028
    137 H64        -9.5880   -4.1080   -2.6710 hc        1 MOL      0.125046
    138 H65        -9.5590   -5.2860   -1.4360 hc        1 MOL      0.125046
    139 H66       -10.1030   -3.6020   -1.0190 hc        1 MOL      0.125046
    140 N12        -8.6380   -0.5060   -0.9880 n         1 MOL     -0.567691
    141 C43        -9.6810    0.5690   -0.8500 c3        1 MOL      0.145219
    142 C44        -9.2880    1.6990    0.1460 c         1 MOL      0.527290
    143 O21        -8.4770    1.5040    1.1200 o         1 MOL     -0.499787
    144 C45       -11.1160    0.0040   -0.3870 c3        1 MOL     -0.571102
    145 C46       -11.1520   -0.6280    0.9750 c3        1 MOL      0.146430
    146 C47       -12.5360   -1.0530    1.3450 c3        1 MOL      0.041284
    147 C48       -12.4000   -1.7720    2.7040 c3        1 MOL     -0.021684
    148 N13       -13.6870   -2.0490    3.3750 n4        1 MOL     -0.229818
    149 H67        -8.0450   -0.7700   -0.2110 hn        1 MOL      0.307004
    150 H68        -9.7860    1.0570   -1.8140 h1        1 MOL      0.114186
    151 H69       -11.4310   -0.7690   -1.0760 hc        1 MOL      0.174274
    152 H70       -11.7290    0.9070   -0.3710 hc        1 MOL      0.174274
    153 H71       -10.6330   -0.1430    1.8040 hc        1 MOL      0.035968
    154 H72       -10.6000   -1.5520    0.8370 hc        1 MOL      0.035968
    155 H73       -12.8650   -1.8460    0.6740 hc        1 MOL      0.010972
    156 H74       -13.2330   -0.2200    1.3870 hc        1 MOL      0.010972
    157 H75       -11.7390   -1.1080    3.2550 hx        1 MOL      0.080562
    158 H76       -11.9220   -2.7050    2.3970 hx        1 MOL      0.080562
    159 H77       -14.1360   -1.1790    3.6040 hn        1 MOL      0.276063
    160 H78       -14.3200   -2.5890    2.7950 hn        1 MOL      0.276063
    161 H79       -13.5690   -2.6010    4.2150 hn        1 MOL      0.276063
    162 N14        -9.8590    2.8950   -0.1410 n         1 MOL     -0.587830
    163 C49        -9.8690    4.0360    0.7590 c3        1 MOL      0.373614
    164 C50        -8.4180    4.4750    1.2220 c         1 MOL      0.287055
    165 O22        -8.3030    4.6580    2.3890 o         1 MOL     -0.502621
    166 C51       -10.6310    5.1700    0.0210 c3        1 MOL     -0.258547
    167 C52       -10.7100    6.3770    0.9860 c3        1 MOL     -0.268943
    168 C53       -11.4690    7.5030    0.2250 c         1 MOL      0.731910
    169 O23       -12.6080    7.3340   -0.2510 o         1 MOL     -0.647608
    170 O24       -10.8890    8.5720    0.0600 o         1 MOL     -0.647608
    171 H80       -10.4970    2.9710   -0.9210 hn        1 MOL      0.280402
    172 H81       -10.3060    3.7610    1.7130 h1        1 MOL      0.018752
    173 H82       -11.6260    4.8600   -0.3070 hc        1 MOL      0.088188
    174 H83        -9.9990    5.4980   -0.8050 hc        1 MOL      0.088188
    175 H84        -9.6540    6.6560    1.0790 hc        1 MOL      0.081038
    176 H85       -11.0900    6.0620    1.9610 hc        1 MOL      0.081038
    177 N15        -7.4120    4.6830    0.3870 n         1 MOL     -0.196813
    178 C54        -7.3020    4.7200   -1.0990 c3        1 MOL     -0.175954
    179 H86        -7.5070    3.7280   -1.5020 h1        1 MOL      0.091905
    180 H87        -8.0250    5.4310   -1.5000 h1        1 MOL      0.091905
    181 H88        -6.2950    5.0260   -1.3830 h1        1 MOL      0.091905
    182 H89        -6.5800    4.9460    0.8990 hn        1 MOL      0.253088
    183 Ca1         6.3390    4.5370    0.3710 Ca        1 MOL      1.731973
    184 O25         5.6190    2.8090   -1.8040 oh        1 MOL     -0.868260
    185 H90         5.2040    1.9530   -1.9120 ho        1 MOL      0.425818
    186 H91         5.8880    3.0610   -2.6840 ho        1 MOL      0.425818
    187 O26         5.4150    6.0820    2.5800 oh        1 MOL     -0.868260
    188 H92         4.7310    6.7500    2.4740 ho        1 MOL      0.425818
    189 H93         5.9780    6.4210    3.2730 ho        1 MOL      0.425818
    190 O27         4.2130    5.4640   -1.0140 oh        1 MOL     -0.868260
    191 H94         3.9250    6.3540   -1.2340 ho        1 MOL      0.425818
    192 H95         3.5700    4.8980   -1.4310 ho        1 MOL      0.425818
@<TRIPOS>BOND
     1    1    2 1   
     2    1    4 1   
     3    1    5 1   
     4    1    6 1   
     5    2    3 2   
     6    2    7 1   
     7    7    8 1   
     8    7   15 1   
     9    8    9 1   
    10    8   11 1   
    11    8   16 1   
    12    9   10 2   
    13    9   19 1   
    14   11   12 1   
    15   11   17 1   
    16   11   18 1   
    17   12   13 1   
    18   12   14 1   
    19   19   20 1   
    20   19   28 1   
    21   20   21 1   
    22   20   23 1   
    23   20   29 1   
    24   21   22 2   
    25   21   41 1   
    26   23   24 1   
    27   23   30 1   
    28   23   31 1   
    29   24   25 1   
    30   24   32 1   
    31   24   33 1   
    32   25   26 1   
    33   25   34 1   
    34   25   35 1   
    35   26   27 1   
    36   26   36 1   
    37   26   37 1   
    38   27   38 1   
    39   27   39 1   
    40   27   40 1   
    41   41   42 1   
    42   41   49 1   
    43   42   43 1   
    44   42   45 1   
    45   42   50 1   
    46   43   44 2   
    47   43   53 1   
    48   45   46 1   
    49   45   51 1   
    50   45   52 1   
    51   46   47 1   
    52   46   48 1   
    53   53   54 1   
    54   53   57 1   
    55   54   55 1   
    56   54   58 1   
    57   54   59 1   
    58   55   56 2   
    59   55   60 1   
    60   60   61 1   
    61   60   68 1   
    62   61   62 1   
    63   61   64 1   
    64   61   69 1   
    65   62   63 2   
    66   62   72 1   
    67   64   65 1   
    68   64   70 1   
    69   64   71 1   
    70   65   66 1   
    71   65   67 1   
    72   72   73 1   
    73   72   76 1   
    74   73   74 1   
    75   73   77 1   
    76   73   78 1   
    77   74   75 2   
    78   74   79 1   
    79   79   80 1   
    80   79   86 1   
    81   80   81 1   
    82   80   83 1   
    83   80   87 1   
    84   81   82 2   
    85   81   93 1   
    86   83   84 1   
    87   83   85 1   
    88   83   88 1   
    89   84   90 1   
    90   84   91 1   
    91   84   92 1   
    92   85   89 1   
    93   93   94 1   
    94   93  101 1   
    95   94   95 1   
    96   94   97 1   
    97   94  102 1   
    98   95   96 2   
    99   95  112 1   
   100   97   98 1   
   101   97   99 1   
   102   97  103 1   
   103   98  100 1   
   104   98  104 1   
   105   98  105 1   
   106   99  106 1   
   107   99  107 1   
   108   99  108 1   
   109  100  109 1   
   110  100  110 1   
   111  100  111 1   
   112  112  113 1   
   113  112  119 1   
   114  113  114 1   
   115  113  116 1   
   116  113  120 1   
   117  114  115 2   
   118  114  126 1   
   119  116  117 1   
   120  116  118 1   
   121  116  121 1   
   122  117  123 1   
   123  117  124 1   
   124  117  125 1   
   125  118  122 1   
   126  126  127 1   
   127  126  133 1   
   128  127  128 1   
   129  127  130 1   
   130  127  134 1   
   131  128  129 2   
   132  128  140 1   
   133  130  131 1   
   134  130  132 1   
   135  130  135 1   
   136  131  137 1   
   137  131  138 1   
   138  131  139 1   
   139  132  136 1   
   140  140  141 1   
   141  140  149 1   
   142  141  142 1   
   143  141  144 1   
   144  141  150 1   
   145  142  143 2   
   146  142  162 1   
   147  144  145 1   
   148  144  151 1   
   149  144  152 1   
   150  145  146 1   
   151  145  153 1   
   152  145  154 1   
   153  146  147 1   
   154  146  155 1   
   155  146  156 1   
   156  147  148 1   
   157  147  157 1   
   158  147  158 1   
   159  148  159 1   
   160  148  160 1   
   161  148  161 1   
   162  162  163 1   
   163  162  171 1   
   164  163  164 1   
   165  163  166 1   
   166  163  172 1   
   167  164  165 2   
   168  164  177 1   
   169  166  167 1   
   170  166  173 1   
   171  166  174 1   
   172  167  168 1   
   173  167  175 1   
   174  167  176 1   
   175  168  169 1   
   176  168  170 1   
   177  177  178 1   
   178  177  182 1   
   179  178  179 1   
   180  178  180 1   
   181  178  181 1   
   182  184  185 1   
   183  184  186 1   
   184  187  188 1   
   185  187  189 1   
   186  190  191 1   
   187  190  192 1   
@<TRIPOS>SUBSTRUCTURE
     1 MOL         1 TEMP              0 ****  ****    0 ROOT
