@<TRIPOS>MOLECULE
MOL
  192   187     1     0     0
SMALL
resp


@<TRIPOS>ATOM
      1 C1         -5.0030   -3.3650   -5.3840 c3        1 MOL     -0.187701
      2 C2         -4.6450   -2.3530   -4.2940 c         1 MOL      0.657318
      3 O1         -4.1870   -1.2400   -4.5720 o         1 MOL     -0.573702
      4 H1         -4.8690   -2.9060   -6.3640 hc        1 MOL      0.047225
      5 H2         -4.3520   -4.2360   -5.3000 hc        1 MOL      0.047225
      6 H3         -6.0410   -3.6740   -5.2670 hc        1 MOL      0.047225
      7 N1         -4.7810   -2.7180   -3.0440 n         1 MOL     -0.447848
      8 C3         -4.6100   -1.7900   -1.8800 c3        1 MOL      0.145569
      9 C4         -3.1300   -1.5930   -1.4840 c         1 MOL     -0.186404
     10 O2         -2.8970   -0.9810   -0.4900 o         1 MOL     -0.080216
     11 C5         -5.4790   -2.3850   -0.7460 c3        1 MOL     -0.051409
     12 C6         -5.4080   -3.9730   -0.6690 c         1 MOL      0.606411
     13 O3         -4.6350   -4.5160    0.1720 o         1 MOL     -0.662295
     14 O4         -6.1870   -4.6860   -1.3830 o         1 MOL     -0.662295
     15 H4         -5.2340   -3.6050   -2.8920 hn        1 MOL      0.265946
     16 H5         -5.0830   -0.8250   -2.0340 h1        1 MOL      0.039048
     17 H6         -6.5120   -2.0870   -0.8930 hc        1 MOL      0.030388
     18 H7         -5.1940   -1.8980    0.1840 hc        1 MOL      0.030388
     19 N2         -2.1270   -1.9790   -2.2970 n         1 MOL     -0.141713
     20 C7         -0.7370   -2.0850   -1.8270 c3        1 MOL      0.017507
     21 C8          0.2570   -1.2180   -2.7100 c         1 MOL      0.398141
     22 O5          0.1500   -1.3000   -3.9440 o         1 MOL     -0.532507
     23 C9         -0.3680   -3.5740   -1.7600 c3        1 MOL      0.023323
     24 C10        -1.1640   -4.3270   -0.6700 c3        1 MOL      0.035950
     25 C11        -0.8720   -5.8250   -0.5480 c3        1 MOL     -0.123566
     26 C12        -1.2650   -6.2820    0.7850 c3        1 MOL      0.022449
     27 N3         -2.7100   -6.4100    0.9900 n4        1 MOL     -0.241733
     28 H8         -2.4350   -2.4710   -3.1240 hn        1 MOL      0.269045
     29 H9         -0.6120   -1.6580   -0.8280 h1        1 MOL     -0.034417
     30 H10         0.7110   -3.6510   -1.7000 hc        1 MOL      0.010943
     31 H11        -0.6500   -4.0720   -2.6820 hc        1 MOL      0.010943
     32 H12        -2.2080   -4.3040   -0.9670 hc        1 MOL      0.035220
     33 H13        -0.9940   -3.8820    0.3090 hc        1 MOL      0.035220
     34 H14         0.2050   -5.9810   -0.6850 hc        1 MOL      0.063134
     35 H15        -1.2540   -6.3780   -1.4070 hc        1 MOL      0.063134
     36 H16        -0.9000   -5.5680    1.5230 hx        1 MOL      0.070125
     37 H17        -0.8330   -7.2670    0.9690 hx        1 MOL      0.070125
     38 H18        -3.0860   -7.1370    0.3930 hn        1 MOL      0.275788
     39 H19        -3.0610   -6.5740    1.9220 hn        1 MOL      0.275788
     40 H20        -3.2760   -5.6200    0.7120 hn        1 MOL      0.275788
     41 N4          1.1370   -0.4300   -2.1940 n         1 MOL     -0.223085
     42 C13         1.2930   -0.0740   -0.7910 c3        1 MOL      0.089887
     43 C14         1.6360   -1.1550    0.2130 c         1 MOL      0.556351
     44 O6          1.0160   -1.2130    1.2520 o         1 MOL     -0.427990
     45 C15         0.2520    1.0130   -0.4410 c3        1 MOL     -0.017589
     46 C16         0.0880    2.2850   -1.2700 c         1 MOL      0.673601
     47 O7          0.3730    2.4610   -2.5000 o         1 MOL     -0.759058
     48 O8         -0.4250    3.3000   -0.7280 o         1 MOL     -0.759058
     49 H21         1.7760   -0.0510   -2.8840 hn        1 MOL      0.243334
     50 H22         2.2710    0.4180   -0.7850 h1        1 MOL      0.021218
     51 H23         0.4520    1.3830    0.5660 hc        1 MOL      0.021306
     52 H24        -0.7340    0.5700   -0.2650 hc        1 MOL      0.021306
     53 N5          2.5580   -2.1010   -0.0380 n         1 MOL     -0.459271
     54 C17         3.4820   -2.0890   -1.2140 c3        1 MOL      0.165217
     55 C18         4.6520   -3.1720   -1.1450 c         1 MOL      0.475719
     56 O9          4.5400   -4.1100   -0.2980 o         1 MOL     -0.561778
     57 H25         2.7400   -2.7620    0.6970 hn        1 MOL      0.261248
     58 H26         3.9660   -1.1130   -1.2510 h1        1 MOL      0.010356
     59 H27         2.9050   -2.2140   -2.1270 h1        1 MOL      0.010356
     60 N6          5.7330   -3.1030   -1.8880 n         1 MOL     -0.428734
     61 C19         6.2200   -1.9390   -2.7740 c3        1 MOL     -0.029620
     62 C20         7.3210   -1.1690   -1.9680 c         1 MOL      0.457994
     63 O10         7.7020   -1.7010   -0.8730 o         1 MOL     -0.419624
     64 C21         6.8400   -2.5460   -4.0140 c3        1 MOL     -0.060419
     65 C22         8.1020   -3.4310   -3.7400 c         1 MOL      0.709876
     66 O11         7.8900   -4.5660   -3.2770 o         1 MOL     -0.668144
     67 O12         9.2390   -2.9680   -4.0780 o         1 MOL     -0.668144
     68 H28         6.3170   -3.9160   -1.8130 hn        1 MOL      0.332144
     69 H29         5.4090   -1.2520   -3.0070 h1        1 MOL      0.036209
     70 H30         7.2230   -1.8230   -4.7230 hc        1 MOL     -0.008769
     71 H31         6.0960   -3.1170   -4.5710 hc        1 MOL     -0.008769
     72 N7          7.7010    0.0880   -2.4060 n         1 MOL     -0.299958
     73 C23         8.7310    0.8700   -1.7680 c3        1 MOL     -0.390870
     74 C24         8.3730    1.2440   -0.3160 c         1 MOL      0.458845
     75 O13         9.3000    1.2710    0.5190 o         1 MOL     -0.513415
     76 H32         7.2730    0.3970   -3.2650 hn        1 MOL      0.272492
     77 H33         8.7860    1.8390   -2.2800 h1        1 MOL      0.199484
     78 H34         9.6550    0.3020   -1.7380 h1        1 MOL      0.199484
     79 N8          7.1150    1.4520    0.0600 n         1 MOL     -0.267850
     80 C25         6.6400    1.6010    1.4590 c3        1 MOL     -0.085773
     81 C26         5.1990    1.0910    1.6260 c         1 MOL      0.487581
     82 O14         4.3670    1.1220    0.7510 o         1 MOL     -0.513930
     83 C27         6.7740    3.0210    1.8700 c3        1 MOL      0.314716
     84 C28         5.9610    4.0970    1.2050 c3        1 MOL     -0.135599
     85 O15         8.0360    3.5630    1.6800 oh        1 MOL     -0.594441
     86 H35         6.4360    1.4140   -0.6850 hn        1 MOL      0.174981
     87 H36         7.2990    1.0220    2.1040 h1        1 MOL      0.134052
     88 H37         6.4980    3.1540    2.9250 h1        1 MOL      0.039657
     89 H38         8.1000    3.7450    0.7460 ho        1 MOL      0.390846
     90 H39         6.2810    5.1280    1.3600 hc        1 MOL      0.013925
     91 H40         6.0280    4.1090    0.1180 hc        1 MOL      0.013925
     92 H41         4.9020    3.9640    1.4370 hc        1 MOL      0.013925
     93 N9          4.9740    0.6150    2.8380 n         1 MOL     -0.282886
     94 C29         3.7890   -0.2310    3.2090 c3        1 MOL     -0.126553
     95 C30         2.7890    0.6190    4.0210 c         1 MOL      0.313731
     96 O16         3.0250    1.0020    5.2010 o         1 MOL     -0.473017
     97 C31         4.2010   -1.5190    3.9780 c3        1 MOL      0.217435
     98 C32         5.2180   -2.2680    3.0960 c3        1 MOL     -0.129335
     99 C33         3.0120   -2.3590    4.4140 c3        1 MOL     -0.506800
    100 C34         6.7090   -2.0460    3.4300 c3        1 MOL     -0.088190
    101 H42         5.7170    0.7250    3.5140 hn        1 MOL      0.243190
    102 H43         3.3230   -0.5690    2.2810 h1        1 MOL      0.168172
    103 H44         4.7410   -1.2310    4.8820 hc        1 MOL      0.020058
    104 H45         5.0470   -1.9780    2.0550 hc        1 MOL      0.060249
    105 H46         4.9930   -3.3280    3.1830 hc        1 MOL      0.060249
    106 H47         2.4900   -1.8120    5.1940 hc        1 MOL      0.133176
    107 H48         2.3190   -2.6310    3.6040 hc        1 MOL      0.133176
    108 H49         3.3750   -3.2800    4.8690 hc        1 MOL      0.133176
    109 H50         7.3960   -2.6690    2.8600 hc        1 MOL      0.032456
    110 H51         6.9060   -0.9970    3.2000 hc        1 MOL      0.032456
    111 H52         6.9940   -2.1640    4.4810 hc        1 MOL      0.032456
    112 N10         1.6410    1.0330    3.3780 n         1 MOL     -0.107273
    113 C35         0.5800    1.9010    3.9140 c3        1 MOL     -0.064192
    114 C36        -0.7200    1.3910    3.2460 c         1 MOL      0.557621
    115 O17        -1.3950    2.1350    2.5970 o         1 MOL     -0.452111
    116 C37         0.9030    3.3880    3.6170 c3        1 MOL      0.353777
    117 C38         1.5810    3.6750    2.2760 c3        1 MOL      0.078068
    118 O18         1.8130    3.8280    4.5750 oh        1 MOL     -0.661037
    119 H53         1.5580    0.8340    2.3910 hn        1 MOL      0.042714
    120 H54         0.5000    1.8180    4.9910 h1        1 MOL      0.109189
    121 H55        -0.0090    3.9850    3.6430 h1        1 MOL     -0.029753
    122 H56         2.1230    4.7210    4.4370 ho        1 MOL      0.401700
    123 H57         0.7700    3.4110    1.6110 hc        1 MOL     -0.049881
    124 H58         1.7980    4.7430    2.2360 hc        1 MOL     -0.049881
    125 H59         2.5610    3.2030    2.2220 hc        1 MOL     -0.049881
    126 N11        -0.9860    0.1250    3.4530 n         1 MOL     -0.534930
    127 C39        -2.0960   -0.5050    2.7970 c3        1 MOL      0.063593
    128 C40        -3.3520    0.1940    3.1450 c         1 MOL      0.314024
    129 O19        -3.5620    0.7250    4.2400 o         1 MOL     -0.509219
    130 C41        -2.1970   -1.9950    2.8740 c3        1 MOL      0.683270
    131 C42        -2.6040   -2.6280    4.2500 c3        1 MOL     -0.424738
    132 O20        -0.8970   -2.5300    2.5450 oh        1 MOL     -0.621910
    133 H60        -0.4940   -0.4370    4.1440 hn        1 MOL      0.312812
    134 H61        -1.8510   -0.3530    1.7460 h1        1 MOL     -0.011868
    135 H62        -2.9040   -2.3430    2.1270 h1        1 MOL     -0.152071
    136 H63        -0.3980   -1.8710    2.0640 ho        1 MOL      0.231778
    137 H64        -3.6250   -2.3400    4.5030 hc        1 MOL      0.096947
    138 H65        -2.7210   -3.7060    4.1920 hc        1 MOL      0.096947
    139 H66        -1.8910   -2.3370    5.0260 hc        1 MOL      0.096947
    140 N12        -4.2100    0.3200    2.1170 n         1 MOL      0.027969
    141 C43        -5.4570    1.0870    2.0910 c3        1 MOL     -0.291430
    142 C44        -5.6430    1.9340    0.7760 c         1 MOL      0.598089
    143 O21        -6.3270    2.9740    0.8430 o         1 MOL     -0.559945
    144 C45        -6.6530    0.1430    2.2630 c3        1 MOL     -0.030945
    145 C46        -6.4290   -0.6220    3.6800 c3        1 MOL     -0.130657
    146 C47        -7.6420   -1.5710    3.8240 c3        1 MOL     -0.004283
    147 C48        -8.9260   -0.8490    4.1970 c3        1 MOL      0.098802
    148 N13       -10.1000   -1.7900    3.9670 n4        1 MOL     -0.414651
    149 H67        -3.9600    0.0430    1.1890 hn        1 MOL      0.037948
    150 H68        -5.3560    1.8130    2.9040 h1        1 MOL      0.161880
    151 H69        -6.6250   -0.5580    1.4360 hc        1 MOL      0.046565
    152 H70        -7.6230    0.6360    2.3610 hc        1 MOL      0.046565
    153 H71        -6.4940    0.1520    4.4490 hc        1 MOL      0.070493
    154 H72        -5.5190   -1.2270    3.6420 hc        1 MOL      0.070493
    155 H73        -7.4350   -2.1090    4.7490 hc        1 MOL      0.019926
    156 H74        -7.7820   -2.2760    2.9960 hc        1 MOL      0.019926
    157 H75        -9.0650   -0.0040    3.5280 hx        1 MOL      0.083025
    158 H76        -8.9780   -0.5420    5.2490 hx        1 MOL      0.083025
    159 H77       -10.2150   -2.5260    4.6530 hn        1 MOL      0.314663
    160 H78       -10.9430   -1.2550    3.7980 hn        1 MOL      0.314663
    161 H79       -10.0110   -2.3250    3.1120 hn        1 MOL      0.314663
    162 N14        -5.1050    1.4140   -0.3780 n         1 MOL     -0.245427
    163 C49        -5.0820    2.1000   -1.6330 c3        1 MOL     -0.035044
    164 C50        -6.4200    1.9570   -2.3840 c         1 MOL      0.476883
    165 O22        -6.9980    0.8250   -2.4670 o         1 MOL     -0.521197
    166 C51        -3.7720    1.8350   -2.4110 c3        1 MOL     -0.023713
    167 C52        -3.6350    2.5720   -3.7560 c3        1 MOL     -0.960093
    168 C53        -3.5950    4.0800   -3.4460 c         1 MOL      1.155438
    169 O23        -2.5140    4.6920   -3.6070 o         1 MOL     -0.879567
    170 O24        -4.5980    4.7040   -3.1710 o         1 MOL     -0.879567
    171 H80        -4.4860    0.6180   -0.3210 hn        1 MOL      0.080904
    172 H81        -5.1240    3.1580   -1.3690 h1        1 MOL      0.068438
    173 H82        -3.8060    0.7900   -2.7130 hc        1 MOL      0.142334
    174 H83        -2.9350    1.9530   -1.7320 hc        1 MOL      0.142334
    175 H84        -4.5140    2.2840   -4.3390 hc        1 MOL      0.277208
    176 H85        -2.7110    2.2700   -4.2480 hc        1 MOL      0.277208
    177 N15        -6.9950    3.0500   -2.9060 n         1 MOL     -0.444262
    178 C54        -8.3560    3.1500   -3.4290 c3        1 MOL     -0.020222
    179 H86        -8.3690    2.8360   -4.4720 h1        1 MOL      0.051755
    180 H87        -9.0170    2.5070   -2.8480 h1        1 MOL      0.051755
    181 H88        -8.6990    4.1830   -3.3570 h1        1 MOL      0.051755
    182 H89        -6.4660    3.9070   -2.8110 hn        1 MOL      0.461647
    183 Ca1        -0.2930    5.1440   -2.5370 Ca        1 MOL      1.785396
    184 O25        -1.4440    6.3650   -0.5850 oh        1 MOL     -0.905926
    185 H90        -1.8900    7.2100   -0.5260 ho        1 MOL      0.448581
    186 H91        -1.4350    6.0340    0.3050 ho        1 MOL      0.448581
    187 O26         1.6410    5.6140   -0.4960 oh        1 MOL     -0.905926
    188 H92         2.5990    5.6130   -0.4130 ho        1 MOL      0.448581
    189 H93         1.3500    6.2100    0.2000 ho        1 MOL      0.448581
    190 O27         2.4340    5.0030   -3.2020 oh        1 MOL     -0.905926
    191 H94         3.0680    5.3060   -2.5480 ho        1 MOL      0.448581
    192 H95         2.9640    4.5880   -3.8820 ho        1 MOL      0.448581
@<TRIPOS>BOND
     1    1    2 1   
     2    1    4 1   
     3    1    5 1   
     4    1    6 1   
     5    2    3 2   
     6    2    7 1   
     7    7    8 1   
     8    7   15 1   
     9    8    9 1   
    10    8   11 1   
    11    8   16 1   
    12    9   10 2   
    13    9   19 1   
    14   11   12 1   
    15   11   17 1   
    16   11   18 1   
    17   12   13 1   
    18   12   14 1   
    19   19   20 1   
    20   19   28 1   
    21   20   21 1   
    22   20   23 1   
    23   20   29 1   
    24   21   22 2   
    25   21   41 1   
    26   23   24 1   
    27   23   30 1   
    28   23   31 1   
    29   24   25 1   
    30   24   32 1   
    31   24   33 1   
    32   25   26 1   
    33   25   34 1   
    34   25   35 1   
    35   26   27 1   
    36   26   36 1   
    37   26   37 1   
    38   27   38 1   
    39   27   39 1   
    40   27   40 1   
    41   41   42 1   
    42   41   49 1   
    43   42   43 1   
    44   42   45 1   
    45   42   50 1   
    46   43   44 2   
    47   43   53 1   
    48   45   46 1   
    49   45   51 1   
    50   45   52 1   
    51   46   47 1   
    52   46   48 1   
    53   53   54 1   
    54   53   57 1   
    55   54   55 1   
    56   54   58 1   
    57   54   59 1   
    58   55   56 2   
    59   55   60 1   
    60   60   61 1   
    61   60   68 1   
    62   61   62 1   
    63   61   64 1   
    64   61   69 1   
    65   62   63 2   
    66   62   72 1   
    67   64   65 1   
    68   64   70 1   
    69   64   71 1   
    70   65   66 1   
    71   65   67 1   
    72   72   73 1   
    73   72   76 1   
    74   73   74 1   
    75   73   77 1   
    76   73   78 1   
    77   74   75 2   
    78   74   79 1   
    79   79   80 1   
    80   79   86 1   
    81   80   81 1   
    82   80   83 1   
    83   80   87 1   
    84   81   82 2   
    85   81   93 1   
    86   83   84 1   
    87   83   85 1   
    88   83   88 1   
    89   84   90 1   
    90   84   91 1   
    91   84   92 1   
    92   85   89 1   
    93   93   94 1   
    94   93  101 1   
    95   94   95 1   
    96   94   97 1   
    97   94  102 1   
    98   95   96 2   
    99   95  112 1   
   100   97   98 1   
   101   97   99 1   
   102   97  103 1   
   103   98  100 1   
   104   98  104 1   
   105   98  105 1   
   106   99  106 1   
   107   99  107 1   
   108   99  108 1   
   109  100  109 1   
   110  100  110 1   
   111  100  111 1   
   112  112  113 1   
   113  112  119 1   
   114  113  114 1   
   115  113  116 1   
   116  113  120 1   
   117  114  115 2   
   118  114  126 1   
   119  116  117 1   
   120  116  118 1   
   121  116  121 1   
   122  117  123 1   
   123  117  124 1   
   124  117  125 1   
   125  118  122 1   
   126  126  127 1   
   127  126  133 1   
   128  127  128 1   
   129  127  130 1   
   130  127  134 1   
   131  128  129 2   
   132  128  140 1   
   133  130  131 1   
   134  130  132 1   
   135  130  135 1   
   136  131  137 1   
   137  131  138 1   
   138  131  139 1   
   139  132  136 1   
   140  140  141 1   
   141  140  149 1   
   142  141  142 1   
   143  141  144 1   
   144  141  150 1   
   145  142  143 2   
   146  142  162 1   
   147  144  145 1   
   148  144  151 1   
   149  144  152 1   
   150  145  146 1   
   151  145  153 1   
   152  145  154 1   
   153  146  147 1   
   154  146  155 1   
   155  146  156 1   
   156  147  148 1   
   157  147  157 1   
   158  147  158 1   
   159  148  159 1   
   160  148  160 1   
   161  148  161 1   
   162  162  163 1   
   163  162  171 1   
   164  163  164 1   
   165  163  166 1   
   166  163  172 1   
   167  164  165 2   
   168  164  177 1   
   169  166  167 1   
   170  166  173 1   
   171  166  174 1   
   172  167  168 1   
   173  167  175 1   
   174  167  176 1   
   175  168  169 1   
   176  168  170 1   
   177  177  178 1   
   178  177  182 1   
   179  178  179 1   
   180  178  180 1   
   181  178  181 1   
   182  184  185 1   
   183  184  186 1   
   184  187  188 1   
   185  187  189 1   
   186  190  191 1   
   187  190  192 1   
@<TRIPOS>SUBSTRUCTURE
     1 MOL         1 TEMP              0 ****  ****    0 ROOT
