@<TRIPOS>MOLECULE
MOL
  192   187     1     0     0
SMALL
resp


@<TRIPOS>ATOM
      1 C1         -5.4560   -2.5490    5.8230 c3        1 MOL     -0.265748
      2 C2         -4.9590   -2.0630    4.4540 c         1 MOL      0.700279
      3 O1         -4.4030   -2.8060    3.6540 o         1 MOL     -0.613303
      4 H1         -5.4850   -3.6390    5.8320 hc        1 MOL      0.072618
      5 H2         -4.7790   -2.1980    6.6010 hc        1 MOL      0.072618
      6 H3         -6.4560   -2.1580    6.0070 hc        1 MOL      0.072618
      7 N1         -5.1550   -0.8280    3.9780 n         1 MOL     -0.528852
      8 C3         -4.8330   -0.3150    2.6000 c3        1 MOL      0.085568
      9 C4         -3.3800   -0.3630    2.1540 c         1 MOL      0.335002
     10 O2         -3.1500   -0.2200    0.9610 o         1 MOL     -0.405627
     11 C5         -5.3850    1.0870    2.4690 c3        1 MOL     -0.169454
     12 C6         -5.1240    2.0950    3.6590 c         1 MOL      0.649409
     13 O3         -4.0840    2.8040    3.7010 o         1 MOL     -0.666446
     14 O4         -6.0110    2.0820    4.5650 o         1 MOL     -0.666446
     15 H4         -5.4960   -0.2270    4.7150 hn        1 MOL      0.278520
     16 H5         -5.3220   -0.8620    1.7870 h1        1 MOL      0.108940
     17 H6         -6.4640    1.1410    2.2920 hc        1 MOL      0.032072
     18 H7         -4.9840    1.4310    1.5090 hc        1 MOL      0.032072
     19 N2         -2.4890   -0.4130    3.1200 n         1 MOL     -0.091900
     20 C7         -1.0950   -0.3940    2.8600 c3        1 MOL     -0.003966
     21 C8         -0.4180   -1.6980    2.4920 c         1 MOL      0.546750
     22 O5         -0.7280   -2.6870    3.1190 o         1 MOL     -0.558135
     23 C9         -0.3800    0.3300    4.0290 c3        1 MOL     -0.348208
     24 C10        -0.4700    1.8700    3.9720 c3        1 MOL      0.418696
     25 C11         0.2810    2.4300    5.2040 c3        1 MOL      0.017128
     26 C12         0.3200    3.9120    5.5100 c3        1 MOL     -0.022661
     27 N3          1.1370    4.6930    4.6420 n4        1 MOL     -0.274596
     28 H8         -2.7890   -0.4090    4.0870 hn        1 MOL      0.212877
     29 H9         -0.8750    0.2950    2.0410 h1        1 MOL      0.013231
     30 H10         0.6730    0.0490    4.0320 hc        1 MOL      0.101392
     31 H11        -0.8660   -0.0520    4.9300 hc        1 MOL      0.101392
     32 H12        -1.5150    2.1680    3.9660 hc        1 MOL     -0.120689
     33 H13        -0.0200    2.2450    3.0600 hc        1 MOL     -0.120689
     34 H14         1.3100    2.0690    5.2550 hc        1 MOL     -0.003991
     35 H15        -0.2180    1.9130    6.0230 hc        1 MOL     -0.003991
     36 H16         0.7120    4.1040    6.5150 hx        1 MOL      0.089276
     37 H17        -0.7090    4.2560    5.5970 hx        1 MOL      0.089276
     38 H18         2.0930    4.3680    4.6380 hn        1 MOL      0.308726
     39 H19         0.8490    4.6940    3.6710 hn        1 MOL      0.308726
     40 H20         1.1270    5.6940    4.7510 hn        1 MOL      0.308726
     41 N4          0.4970   -1.8060    1.5560 n         1 MOL     -0.292596
     42 C13         1.0060   -0.8340    0.6600 c3        1 MOL      0.075365
     43 C14         1.4580    0.4870    1.2840 c         1 MOL      0.209987
     44 O6          0.9160    1.5640    1.0870 o         1 MOL     -0.394598
     45 C15         0.1460   -0.7100   -0.6520 c3        1 MOL      0.025446
     46 C16        -0.1230   -2.0450   -1.4030 c         1 MOL      0.479434
     47 O7          0.5280   -3.0670   -1.1700 o         1 MOL     -0.721774
     48 O8         -0.9670   -2.0810   -2.3450 o         1 MOL     -0.721774
     49 H21         0.7600   -2.7810    1.4700 hn        1 MOL      0.242062
     50 H22         1.9260   -1.2170    0.2230 h1        1 MOL     -0.013888
     51 H23         0.5790    0.0150   -1.3300 hc        1 MOL      0.063770
     52 H24        -0.8170   -0.2550   -0.4110 hc        1 MOL      0.063770
     53 N5          2.5440    0.5150    2.0500 n         1 MOL     -0.111243
     54 C17         3.3110   -0.6810    2.4890 c3        1 MOL     -0.163323
     55 C18         4.4860   -0.2240    3.4060 c         1 MOL      0.541480
     56 O9          4.5420    0.8780    3.9500 o         1 MOL     -0.532034
     57 H25         2.7720    1.4040    2.4620 hn        1 MOL      0.218637
     58 H26         3.7360   -1.0780    1.5640 h1        1 MOL      0.064754
     59 H27         2.6590   -1.4540    2.9040 h1        1 MOL      0.064754
     60 N6          5.4370   -1.1410    3.6570 n         1 MOL     -0.394534
     61 C19         5.5180   -2.4400    3.0370 c3        1 MOL     -0.000084
     62 C20         6.2740   -2.5350    1.7250 c         1 MOL      0.454978
     63 O10         7.3570   -1.9340    1.5690 o         1 MOL     -0.389253
     64 C21         6.1300   -3.4600    4.0190 c3        1 MOL     -0.247229
     65 C22         7.4750   -3.0490    4.5680 c         1 MOL      0.738214
     66 O11         7.4170   -2.3920    5.6540 o         1 MOL     -0.658768
     67 O12         8.5620   -3.2920    3.9980 o         1 MOL     -0.658768
     68 H28         6.1080   -0.9390    4.3810 hn        1 MOL      0.291578
     69 H29         4.5100   -2.8210    2.8460 h1        1 MOL      0.054497
     70 H30         6.2090   -4.4740    3.6290 hc        1 MOL      0.049696
     71 H31         5.3500   -3.6750    4.7540 hc        1 MOL      0.049696
     72 N7          5.9420   -3.4860    0.8140 n         1 MOL     -0.348506
     73 C23         6.5730   -3.6490   -0.5220 c3        1 MOL     -0.317370
     74 C24         6.3020   -2.4690   -1.4550 c         1 MOL      0.472727
     75 O13         7.1520   -1.9900   -2.2180 o         1 MOL     -0.505473
     76 H32         5.1240   -4.0500    0.9600 hn        1 MOL      0.258634
     77 H33         6.1900   -4.5290   -1.0410 h1        1 MOL      0.168359
     78 H34         7.6440   -3.7640   -0.3310 h1        1 MOL      0.168359
     79 N8          5.0900   -1.9070   -1.2900 n         1 MOL     -0.358291
     80 C25         4.6840   -0.6990   -2.0230 c3        1 MOL     -0.012987
     81 C26         4.8070    0.6010   -1.2950 c         1 MOL      0.663454
     82 O14         4.5350    0.7040   -0.0520 o         1 MOL     -0.514243
     83 C27         3.3260   -0.7390   -2.6730 c3        1 MOL      0.221802
     84 C28         3.1140   -2.0850   -3.3970 c3        1 MOL      0.048151
     85 O15         3.1630    0.1970   -3.7050 oh        1 MOL     -0.617372
     86 H35         4.3900   -2.3930   -0.7520 hn        1 MOL      0.271265
     87 H36         5.2720   -0.6070   -2.9290 h1        1 MOL      0.050728
     88 H37         2.5500   -0.6890   -1.9090 h1        1 MOL      0.114822
     89 H38         3.6380   -0.1460   -4.4630 ho        1 MOL      0.405577
     90 H39         3.7370   -2.1100   -4.2930 hc        1 MOL     -0.039651
     91 H40         3.2110   -2.9510   -2.7380 hc        1 MOL     -0.039651
     92 H41         2.0870   -2.1210   -3.7750 hc        1 MOL     -0.039651
     93 N9          5.0550    1.6550   -2.0870 n         1 MOL     -0.596086
     94 C29         5.2380    3.0520   -1.6250 c3        1 MOL     -0.085382
     95 C30         3.8330    3.4750   -1.0590 c         1 MOL      0.603625
     96 O16         3.7620    3.7710    0.1120 o         1 MOL     -0.585622
     97 C31         5.9480    3.8730   -2.7790 c3        1 MOL      0.357928
     98 C32         7.2650    3.1980   -3.1880 c3        1 MOL     -0.216334
     99 C33         6.1880    5.2630   -2.2190 c3        1 MOL     -0.316986
    100 C34         8.2400    3.8070   -4.1270 c3        1 MOL     -0.042343
    101 H42         5.4710    1.5130   -3.0010 hn        1 MOL      0.278663
    102 H43         5.9420    3.1020   -0.7900 h1        1 MOL      0.112542
    103 H44         5.3440    3.9650   -3.6820 hc        1 MOL     -0.042961
    104 H45         6.9570    2.2370   -3.5890 hc        1 MOL      0.070501
    105 H46         7.6940    3.0740   -2.1980 hc        1 MOL      0.070501
    106 H47         6.6060    5.8810   -3.0160 hc        1 MOL      0.073259
    107 H48         5.2550    5.7210   -1.8940 hc        1 MOL      0.073259
    108 H49         6.7570    5.2270   -1.2910 hc        1 MOL      0.073259
    109 H50         7.7310    4.0730   -5.0540 hc        1 MOL      0.022678
    110 H51         8.5800    4.7620   -3.7330 hc        1 MOL      0.022678
    111 H52         9.1180    3.2280   -4.3960 hc        1 MOL      0.022678
    112 N10         2.8250    3.6470   -1.8780 n         1 MOL     -0.245809
    113 C35         1.6110    4.3690   -1.6070 c3        1 MOL      0.121056
    114 C36         0.3610    3.4120   -1.4820 c         1 MOL      0.290178
    115 O17         0.3640    2.3910   -2.2060 o         1 MOL     -0.458898
    116 C37         1.4550    5.4970   -2.6220 c3        1 MOL      0.378572
    117 C38         1.0670    4.9030   -4.0350 c3        1 MOL     -0.533105
    118 O18         2.6760    6.2170   -2.7550 oh        1 MOL     -0.695636
    119 H53         3.0870    3.5590   -2.8480 hn        1 MOL      0.168953
    120 H54         1.7240    4.9010   -0.6640 h1        1 MOL      0.033776
    121 H55         0.7140    6.2190   -2.2640 h1        1 MOL     -0.008654
    122 H56         2.6550    6.8920   -3.4440 ho        1 MOL      0.424752
    123 H57         1.7390    4.1000   -4.3480 hc        1 MOL      0.144821
    124 H58         0.0440    4.5520   -4.0070 hc        1 MOL      0.144821
    125 H59         1.2840    5.6650   -4.7790 hc        1 MOL      0.144821
    126 N11        -0.6120    3.7450   -0.6450 n         1 MOL     -0.481730
    127 C39        -1.7560    2.8740   -0.3990 c3        1 MOL      0.122965
    128 C40        -2.4780    2.5460   -1.7050 c         1 MOL      0.515426
    129 O19        -2.5560    3.3740   -2.6730 o         1 MOL     -0.539298
    130 C41        -2.7050    3.5460    0.6050 c3        1 MOL      0.429281
    131 C42        -3.4090    4.8210    0.3180 c3        1 MOL     -0.376843
    132 O20        -2.0680    3.8140    1.7960 oh        1 MOL     -0.616848
    133 H60        -0.5160    4.5270   -0.0220 hn        1 MOL      0.317038
    134 H61        -1.4310    1.9300    0.0380 h1        1 MOL      0.108270
    135 H62        -3.4860    2.8120    0.7850 h1        1 MOL     -0.036213
    136 H63        -2.7840    3.4980    2.3540 ho        1 MOL      0.358348
    137 H64        -3.5480    4.8860   -0.7600 hc        1 MOL      0.077254
    138 H65        -4.2980    4.9120    0.9510 hc        1 MOL      0.077254
    139 H66        -2.7130    5.6350    0.5460 hc        1 MOL      0.077254
    140 N12        -3.2420    1.4920   -1.5510 n         1 MOL     -0.231788
    141 C43        -4.1960    1.1050   -2.5920 c3        1 MOL     -0.066601
    142 C44        -4.4930   -0.4450   -2.5720 c         1 MOL      0.564996
    143 O21        -5.0040   -0.9350   -3.6060 o         1 MOL     -0.637594
    144 C45        -5.5580    1.9010   -2.4220 c3        1 MOL     -0.197235
    145 C46        -6.2090    2.0620   -1.0350 c3        1 MOL     -0.024463
    146 C47        -7.6210    2.6380   -0.9600 c3        1 MOL      0.130788
    147 C48        -7.6760    4.0670   -1.4220 c3        1 MOL      0.100550
    148 N13        -9.0070    4.6070   -1.2700 n4        1 MOL     -0.282826
    149 H67        -3.1430    0.8530   -0.7710 hn        1 MOL     -0.046447
    150 H68        -3.7510    1.3470   -3.5550 h1        1 MOL      0.131081
    151 H69        -6.3130    1.4110   -3.0420 hc        1 MOL      0.054684
    152 H70        -5.3960    2.9150   -2.7870 hc        1 MOL      0.054684
    153 H71        -5.6430    2.7680   -0.4300 hc        1 MOL      0.021930
    154 H72        -6.0540    1.1120   -0.5370 hc        1 MOL      0.021930
    155 H73        -7.8980    2.6020    0.0890 hc        1 MOL     -0.010094
    156 H74        -8.3310    2.0230   -1.5260 hc        1 MOL     -0.010094
    157 H75        -7.4290    4.1040   -2.4840 hx        1 MOL      0.043909
    158 H76        -6.9330    4.5910   -0.8320 hx        1 MOL      0.043909
    159 H77        -9.7420    3.9640   -1.5320 hn        1 MOL      0.269146
    160 H78        -9.1130    4.8670   -0.2990 hn        1 MOL      0.269146
    161 H79        -9.1160    5.4910   -1.7590 hn        1 MOL      0.269146
    162 N14        -4.1980   -1.1830   -1.5260 n         1 MOL     -0.252365
    163 C49        -4.6730   -2.5430   -1.4000 c3        1 MOL     -0.083420
    164 C50        -6.1600   -2.5120   -1.1180 c         1 MOL      0.548736
    165 O22        -6.6880   -2.0740   -0.0770 o         1 MOL     -0.547364
    166 C51        -3.8290   -3.3710   -0.4160 c3        1 MOL     -0.174617
    167 C52        -4.0120   -4.8830   -0.4370 c3        1 MOL     -0.150678
    168 C53        -3.8570   -5.4640   -1.8020 c         1 MOL      0.442987
    169 O23        -2.8400   -5.1980   -2.4900 o         1 MOL     -0.650025
    170 O24        -4.8010   -6.1990   -2.2430 o         1 MOL     -0.650025
    171 H80        -3.6220   -0.7550   -0.8120 hn        1 MOL      0.371777
    172 H81        -4.4330   -2.9940   -2.3670 h1        1 MOL      0.128152
    173 H82        -4.1620   -2.9780    0.5470 hc        1 MOL      0.049415
    174 H83        -2.7780   -3.1660   -0.5920 hc        1 MOL      0.049415
    175 H84        -5.0380   -5.0720   -0.1190 hc        1 MOL      0.109345
    176 H85        -3.3320   -5.3850    0.2500 hc        1 MOL      0.109345
    177 N15        -6.9100   -2.8990   -2.1130 n         1 MOL     -0.254130
    178 C54        -8.3310   -3.0760   -1.8580 c3        1 MOL     -0.167443
    179 H86        -8.4790   -3.9540   -1.2290 h1        1 MOL      0.080043
    180 H87        -8.7220   -2.1950   -1.3490 h1        1 MOL      0.080043
    181 H88        -8.8560   -3.2140   -2.8030 h1        1 MOL      0.080043
    182 H89        -6.5710   -3.2670   -2.9890 hn        1 MOL      0.305310
    183 Ca1        -0.5050   -4.6640   -2.8960 Ca        1 MOL      1.724609
    184 O25        -1.4720   -3.4590   -5.0010 oh        1 MOL     -0.852913
    185 H90        -0.9590   -3.2120   -5.7750 ho        1 MOL      0.428838
    186 H91        -2.2670   -2.9320   -5.0640 ho        1 MOL      0.428838
    187 O26         1.9420   -5.7390   -2.0810 oh        1 MOL     -0.852913
    188 H92         2.6210   -5.8590   -1.4130 ho        1 MOL      0.428838
    189 H93         2.4330   -5.5190   -2.8710 ho        1 MOL      0.428838
    190 O27         1.5870   -4.5940   -5.1160 oh        1 MOL     -0.852913
    191 H94         2.3910   -4.1150   -5.3250 ho        1 MOL      0.428838
    192 H95         1.1360   -4.6780   -5.9550 ho        1 MOL      0.428838
@<TRIPOS>BOND
     1    1    2 1   
     2    1    4 1   
     3    1    5 1   
     4    1    6 1   
     5    2    3 2   
     6    2    7 1   
     7    7    8 1   
     8    7   15 1   
     9    8    9 1   
    10    8   11 1   
    11    8   16 1   
    12    9   10 2   
    13    9   19 1   
    14   11   12 1   
    15   11   17 1   
    16   11   18 1   
    17   12   13 1   
    18   12   14 1   
    19   19   20 1   
    20   19   28 1   
    21   20   21 1   
    22   20   23 1   
    23   20   29 1   
    24   21   22 2   
    25   21   41 1   
    26   23   24 1   
    27   23   30 1   
    28   23   31 1   
    29   24   25 1   
    30   24   32 1   
    31   24   33 1   
    32   25   26 1   
    33   25   34 1   
    34   25   35 1   
    35   26   27 1   
    36   26   36 1   
    37   26   37 1   
    38   27   38 1   
    39   27   39 1   
    40   27   40 1   
    41   41   42 1   
    42   41   49 1   
    43   42   43 1   
    44   42   45 1   
    45   42   50 1   
    46   43   44 2   
    47   43   53 1   
    48   45   46 1   
    49   45   51 1   
    50   45   52 1   
    51   46   47 1   
    52   46   48 1   
    53   53   54 1   
    54   53   57 1   
    55   54   55 1   
    56   54   58 1   
    57   54   59 1   
    58   55   56 2   
    59   55   60 1   
    60   60   61 1   
    61   60   68 1   
    62   61   62 1   
    63   61   64 1   
    64   61   69 1   
    65   62   63 2   
    66   62   72 1   
    67   64   65 1   
    68   64   70 1   
    69   64   71 1   
    70   65   66 1   
    71   65   67 1   
    72   72   73 1   
    73   72   76 1   
    74   73   74 1   
    75   73   77 1   
    76   73   78 1   
    77   74   75 2   
    78   74   79 1   
    79   79   80 1   
    80   79   86 1   
    81   80   81 1   
    82   80   83 1   
    83   80   87 1   
    84   81   82 2   
    85   81   93 1   
    86   83   84 1   
    87   83   85 1   
    88   83   88 1   
    89   84   90 1   
    90   84   91 1   
    91   84   92 1   
    92   85   89 1   
    93   93   94 1   
    94   93  101 1   
    95   94   95 1   
    96   94   97 1   
    97   94  102 1   
    98   95   96 2   
    99   95  112 1   
   100   97   98 1   
   101   97   99 1   
   102   97  103 1   
   103   98  100 1   
   104   98  104 1   
   105   98  105 1   
   106   99  106 1   
   107   99  107 1   
   108   99  108 1   
   109  100  109 1   
   110  100  110 1   
   111  100  111 1   
   112  112  113 1   
   113  112  119 1   
   114  113  114 1   
   115  113  116 1   
   116  113  120 1   
   117  114  115 2   
   118  114  126 1   
   119  116  117 1   
   120  116  118 1   
   121  116  121 1   
   122  117  123 1   
   123  117  124 1   
   124  117  125 1   
   125  118  122 1   
   126  126  127 1   
   127  126  133 1   
   128  127  128 1   
   129  127  130 1   
   130  127  134 1   
   131  128  129 2   
   132  128  140 1   
   133  130  131 1   
   134  130  132 1   
   135  130  135 1   
   136  131  137 1   
   137  131  138 1   
   138  131  139 1   
   139  132  136 1   
   140  140  141 1   
   141  140  149 1   
   142  141  142 1   
   143  141  144 1   
   144  141  150 1   
   145  142  143 2   
   146  142  162 1   
   147  144  145 1   
   148  144  151 1   
   149  144  152 1   
   150  145  146 1   
   151  145  153 1   
   152  145  154 1   
   153  146  147 1   
   154  146  155 1   
   155  146  156 1   
   156  147  148 1   
   157  147  157 1   
   158  147  158 1   
   159  148  159 1   
   160  148  160 1   
   161  148  161 1   
   162  162  163 1   
   163  162  171 1   
   164  163  164 1   
   165  163  166 1   
   166  163  172 1   
   167  164  165 2   
   168  164  177 1   
   169  166  167 1   
   170  166  173 1   
   171  166  174 1   
   172  167  168 1   
   173  167  175 1   
   174  167  176 1   
   175  168  169 1   
   176  168  170 1   
   177  177  178 1   
   178  177  182 1   
   179  178  179 1   
   180  178  180 1   
   181  178  181 1   
   182  184  185 1   
   183  184  186 1   
   184  187  188 1   
   185  187  189 1   
   186  190  191 1   
   187  190  192 1   
@<TRIPOS>SUBSTRUCTURE
     1 MOL         1 TEMP              0 ****  ****    0 ROOT
