@<TRIPOS>MOLECULE
MOL
  185   180     1     0     0
SMALL
resp


@<TRIPOS>ATOM
      1 C1          5.8700    1.5940    4.1100 c3        1 MOL     -0.492638
      2 C2          6.5160    1.3490    2.7280 c         1 MOL      0.717706
      3 O1          5.7630    1.1050    1.7470 o         1 MOL     -0.515950
      4 H1          6.1120    2.6010    4.4500 hc        1 MOL      0.138632
      5 H2          4.7880    1.4890    4.0300 hc        1 MOL      0.138632
      6 H3          6.2550    0.8680    4.8250 hc        1 MOL      0.138632
      7 N1          7.8160    1.5170    2.5720 n         1 MOL     -0.651965
      8 C3          8.5520    1.4850    1.2980 c3        1 MOL      0.225790
      9 C4          8.4440    0.2320    0.3820 c         1 MOL      0.627160
     10 O2          8.7130    0.3600   -0.8370 o         1 MOL     -0.573409
     11 C5          8.3430    2.8410    0.5720 c3        1 MOL     -0.410595
     12 C6          8.3620    4.0960    1.4630 c         1 MOL      0.820592
     13 O3          7.6680    5.1190    1.1390 o         1 MOL     -0.700039
     14 O4          8.9860    4.1910    2.5430 o         1 MOL     -0.700039
     15 H4          8.3930    1.9510    3.2860 hn        1 MOL      0.333482
     16 H5          9.6030    1.4700    1.5900 h1        1 MOL      0.027832
     17 H6          7.3620    2.8460    0.0900 hc        1 MOL      0.091858
     18 H7          9.1090    2.9620   -0.1950 hc        1 MOL      0.091858
     19 N2          8.1210   -0.9200    1.0190 n         1 MOL     -0.692064
     20 C7          7.9250   -2.1690    0.2820 c3        1 MOL      0.405417
     21 C8          6.4080   -2.5650    0.4120 c         1 MOL      0.580801
     22 O5          6.1200   -3.7390    0.2990 o         1 MOL     -0.589282
     23 C9          8.9790   -3.1230    0.7640 c3        1 MOL     -0.241270
     24 C10        10.4700   -2.7490    0.7240 c3        1 MOL      0.121539
     25 C11        10.8810   -2.4230   -0.6970 c3        1 MOL     -0.119155
     26 C12        12.3470   -2.7350   -0.9760 c3        1 MOL      0.185647
     27 N3         12.7810   -2.3910   -2.3560 n4        1 MOL     -0.404727
     28 H8          7.9760   -0.9230    2.0190 hn        1 MOL      0.313792
     29 H9          8.0430   -2.0710   -0.7990 h1        1 MOL      0.002313
     30 H10         8.8160   -4.0550    0.2280 hc        1 MOL      0.056043
     31 H11         8.7290   -3.2710    1.8110 hc        1 MOL      0.056043
     32 H12        11.0740   -3.5930    1.0660 hc        1 MOL      0.003668
     33 H13        10.7280   -1.8650    1.3020 hc        1 MOL      0.003668
     34 H14        10.8560   -1.3390   -0.7810 hc        1 MOL      0.046281
     35 H15        10.2770   -2.9210   -1.4560 hc        1 MOL      0.046281
     36 H16        12.5600   -3.8000   -0.8700 hx        1 MOL      0.038207
     37 H17        12.9130   -2.2950   -0.1580 hx        1 MOL      0.038207
     38 H18        12.3320   -1.4990   -2.4780 hn        1 MOL      0.338122
     39 H19        13.7730   -2.3730   -2.5570 hn        1 MOL      0.338122
     40 H20        12.2620   -3.0040   -2.9640 hn        1 MOL      0.338122
     41 N4          5.4440   -1.5960    0.4530 n         1 MOL     -0.598350
     42 C13         4.0390   -1.7920    0.3670 c3        1 MOL      0.102699
     43 C14         3.6370   -2.6510   -0.8650 c         1 MOL      0.641072
     44 O6          4.1200   -2.2830   -1.9460 o         1 MOL     -0.543674
     45 C15         3.1990   -0.5320    0.3430 c3        1 MOL     -0.159260
     46 C16         1.6660   -0.7970    0.5410 c         1 MOL      0.566193
     47 O7          1.2640   -1.0020    1.6830 o         1 MOL     -0.681781
     48 O8          0.8860   -0.9480   -0.4120 o         1 MOL     -0.681781
     49 H21         5.7390   -0.6400    0.3020 hn        1 MOL      0.313130
     50 H22         3.7350   -2.3980    1.2170 h1        1 MOL      0.039497
     51 H23         3.2930   -0.0130   -0.6150 hc        1 MOL      0.099025
     52 H24         3.5870    0.0800    1.1570 hc        1 MOL      0.099025
     53 N5          2.8720   -3.7080   -0.6400 n         1 MOL     -0.307098
     54 C17         2.3520   -4.7340   -1.5390 c3        1 MOL     -0.095104
     55 C18         1.6050   -4.2060   -2.7550 c         1 MOL      0.587794
     56 O9          1.4730   -4.8160   -3.8110 o         1 MOL     -0.566703
     57 H25         2.6850   -3.9470    0.3200 hn        1 MOL      0.237020
     58 H26         1.6250   -5.3610   -1.0130 h1        1 MOL      0.076764
     59 H27         3.0850   -5.3980   -1.9840 h1        1 MOL      0.076764
     60 N6          1.1070   -2.9660   -2.7100 n         1 MOL     -0.437481
     61 C19         0.4830   -2.1540   -3.7530 c3        1 MOL      0.235380
     62 C20         0.9080   -0.6740   -3.7520 c         1 MOL      0.267875
     63 O10         0.1950    0.1200   -4.3610 o         1 MOL     -0.513580
     64 C21        -1.0300   -2.3940   -3.8070 c3        1 MOL     -0.471606
     65 C22        -1.7130   -1.7000   -2.6470 c         1 MOL      0.838637
     66 N7         -2.2520   -0.5440   -2.7810 n         1 MOL     -0.786784
     67 O11        -1.6060   -2.1140   -1.5030 o         1 MOL     -0.718490
     68 H28         1.0180   -2.4550   -1.8450 hn        1 MOL      0.294829
     69 H29         0.9040   -2.5270   -4.6930 h1        1 MOL      0.086534
     70 H30        -1.1860   -3.4680   -3.7540 hc        1 MOL      0.144856
     71 H31        -1.2970   -1.9210   -4.7490 hc        1 MOL      0.144856
     72 H32        -2.2650   -0.1450   -3.7110 hn        1 MOL      0.365418
     73 H33        -2.3360   -0.0850   -1.8860 hn        1 MOL      0.365418
     74 N8          1.9380   -0.2690   -3.0560 n         1 MOL      0.081567
     75 C23         2.6110    1.0160   -3.1090 c3        1 MOL     -0.340818
     76 C24         1.7640    2.0730   -2.4160 c         1 MOL      0.545410
     77 O12         1.7530    3.2340   -2.8700 o         1 MOL     -0.544883
     78 H34         2.4970   -1.0010   -2.6320 hn        1 MOL      0.004427
     79 H35         2.7420    1.1610   -4.1840 h1        1 MOL      0.164057
     80 H36         3.5980    0.8670   -2.6700 h1        1 MOL      0.164057
     81 N9          0.9080    1.6730   -1.4220 n         1 MOL     -0.288723
     82 C25        -0.0110    2.5290   -0.6140 c3        1 MOL      0.249369
     83 C26        -1.4080    1.9430   -0.2570 c         1 MOL      0.408999
     84 O13        -1.5490    0.7240   -0.1380 o         1 MOL     -0.362543
     85 C27         0.6990    3.0160    0.6490 c3        1 MOL     -0.212607
     86 C28         1.9780    3.8250    0.5480 ca        1 MOL      0.119536
     87 C29         1.8200    5.1950    0.4370 ca        1 MOL     -0.216728
     88 C30         3.2300    3.2890    0.7370 ca        1 MOL     -0.216728
     89 C31         2.9710    6.0120    0.5930 ca        1 MOL     -0.122536
     90 C32         4.3650    4.0540    0.9310 ca        1 MOL     -0.122536
     91 C33         4.2180    5.4440    0.7820 ca        1 MOL      0.235925
     92 O14         5.3430    6.2190    1.1760 oh        1 MOL     -0.540968
     93 H37         0.9520    0.6650   -1.3410 hn        1 MOL      0.038713
     94 H38        -0.3220    3.3260   -1.2820 h1        1 MOL      0.006949
     95 H39         0.9510    2.1360    1.2310 hc        1 MOL      0.056949
     96 H40        -0.0400    3.5850    1.2130 hc        1 MOL      0.056949
     97 H41         0.8330    5.6210    0.4140 ha        1 MOL      0.104243
     98 H42         3.2560    2.2590    1.0490 ha        1 MOL      0.104243
     99 H43         2.8240    7.0880    0.5250 ha        1 MOL      0.107593
    100 H44         5.2800    3.5200    1.1440 ha        1 MOL      0.107593
    101 H45         6.1550    5.7250    1.0150 ho        1 MOL      0.403267
    102 N10        -2.3720    2.8250   -0.0760 n         1 MOL     -0.519267
    103 C34        -3.7670    2.4730    0.3030 c3        1 MOL      0.112358
    104 C35        -4.5970    1.9060   -0.8520 c         1 MOL      0.178511
    105 O15        -4.9690    0.7420   -0.7440 o         1 MOL     -0.467266
    106 C36        -4.4080    3.7090    1.0050 c3        1 MOL     -0.023319
    107 C37        -3.5710    4.2510    2.2350 c3        1 MOL      0.196812
    108 C38        -5.9220    3.4390    1.3270 c3        1 MOL     -0.391290
    109 C39        -3.5570    3.4190    3.5260 c3        1 MOL     -0.301405
    110 H46        -2.1910    3.8180   -0.1510 hn        1 MOL      0.299201
    111 H47        -3.5840    1.6760    1.0380 h1        1 MOL      0.068430
    112 H48        -4.3580    4.4710    0.2210 hc        1 MOL     -0.021507
    113 H49        -3.9600    5.2520    2.4690 hc        1 MOL     -0.016355
    114 H50        -2.5410    4.5000    2.0090 hc        1 MOL     -0.016355
    115 H51        -6.3370    4.2960    1.8670 hc        1 MOL      0.123440
    116 H52        -6.5190    3.3910    0.4170 hc        1 MOL      0.123440
    117 H53        -6.1290    2.5870    1.9800 hc        1 MOL      0.123440
    118 H54        -4.5690    3.4160    3.9120 hc        1 MOL      0.083095
    119 H55        -3.3360    2.3830    3.2790 hc        1 MOL      0.083095
    120 H56        -2.8280    3.8780    4.2000 hc        1 MOL      0.083095
    121 N11        -4.7700    2.6030   -1.9680 n         1 MOL     -0.088299
    122 C40        -5.5080    2.1860   -3.1520 c3        1 MOL     -0.146176
    123 C41        -7.0060    1.9880   -2.7900 c         1 MOL      0.450219
    124 O16        -7.6650    1.1620   -3.4060 o         1 MOL     -0.508652
    125 C42        -5.4800    3.2550   -4.2010 c3        1 MOL      0.329177
    126 O17        -4.2260    3.2640   -4.7890 oh        1 MOL     -0.591828
    127 H57        -4.4000    3.5420   -2.0160 hn        1 MOL      0.221191
    128 H58        -5.0380    1.3220   -3.6170 h1        1 MOL      0.143907
    129 H59        -5.7980    4.2170   -3.7800 h1        1 MOL      0.006720
    130 H60        -6.2680    3.0890   -4.9360 h1        1 MOL      0.006720
    131 H61        -3.5710    3.6750   -4.2160 ho        1 MOL      0.383805
    132 N12        -7.5860    2.6760   -1.8480 n         1 MOL     -0.351459
    133 C43        -8.8890    2.3590   -1.2090 c3        1 MOL      0.106899
    134 C44        -9.1250    0.9860   -0.5870 c         1 MOL      0.554841
    135 O18       -10.1950    0.6880   -0.0810 o         1 MOL     -0.515909
    136 C45       -10.1660    2.6840   -2.0880 c3        1 MOL     -0.431808
    137 H62        -6.9780    3.4050   -1.5050 hn        1 MOL      0.219452
    138 H63        -8.9740    3.0550   -0.3680 h1        1 MOL      0.078551
    139 H64       -11.0090    2.5900   -1.3970 hc        1 MOL      0.134807
    140 H65       -10.1360    3.6320   -2.6310 hc        1 MOL      0.134807
    141 H66       -10.2710    2.0510   -2.9590 hc        1 MOL      0.134807
    142 N13        -8.0670    0.1440   -0.4350 n         1 MOL     -0.642299
    143 C46        -8.1040   -1.2630   -0.1350 c3        1 MOL      0.541971
    144 C47        -7.4320   -1.5730    1.1950 c         1 MOL      0.389287
    145 O19        -6.6490   -0.7490    1.6810 o         1 MOL     -0.427484
    146 C48        -7.5690   -2.0440   -1.3080 c3        1 MOL     -0.201105
    147 H67        -7.1450    0.4160   -0.7380 hn        1 MOL      0.266553
    148 H68        -9.1510   -1.5350   -0.0220 h1        1 MOL     -0.048476
    149 H69        -8.0370   -3.0090   -1.4690 hc        1 MOL      0.063423
    150 H70        -7.7070   -1.4880   -2.2390 hc        1 MOL      0.063423
    151 H71        -6.4850   -2.1510   -1.2130 hc        1 MOL      0.063423
    152 N14        -7.6890   -2.8220    1.7270 n         1 MOL     -0.605768
    153 C49        -6.9260   -3.4290    2.8990 c3        1 MOL      0.070260
    154 C50        -7.2310   -2.6890    4.1750 c         1 MOL      0.448063
    155 O20        -6.3960   -2.7400    5.0920 o         1 MOL     -0.505325
    156 C51        -5.4000   -3.7510    2.5470 c3        1 MOL     -0.046690
    157 C52        -5.1900   -4.4420    1.2280 c3        1 MOL      0.162966
    158 C53        -3.7440   -4.4780    0.7170 c         1 MOL      0.597661
    159 O21        -2.8510   -3.7580    1.1810 o         1 MOL     -0.685373
    160 O22        -3.5060   -5.2490   -0.2250 o         1 MOL     -0.685373
    161 H72        -8.3660   -3.4480    1.3040 hn        1 MOL      0.320844
    162 H73        -7.3940   -4.3910    3.0590 h1        1 MOL      0.075204
    163 H74        -4.8870   -4.4180    3.2410 hc        1 MOL      0.004665
    164 H75        -4.8350   -2.8270    2.5980 hc        1 MOL      0.004665
    165 H76        -5.7680   -3.9580    0.4400 hc        1 MOL     -0.061167
    166 H77        -5.5750   -5.4580    1.2480 hc        1 MOL     -0.061167
    167 N15        -8.3230   -1.9590    4.3370 n         1 MOL     -0.345370
    168 C54        -8.4060   -0.8940    5.3250 c3        1 MOL     -0.152885
    169 H78        -8.2080   -1.3030    6.3160 h1        1 MOL      0.093270
    170 H79        -7.6670   -0.1260    5.0960 h1        1 MOL      0.093270
    171 H80        -9.4040   -0.4560    5.3050 h1        1 MOL      0.093270
    172 H81        -9.0170   -1.8830    3.6150 hn        1 MOL      0.268187
    173 Ca1        -1.2080   -1.6450    1.0290 Ca        1 MOL      1.736539
    174 O23         0.0950   -3.8950    0.6540 oh        1 MOL     -0.856363
    175 H82         0.6690   -4.4940    1.1390 ho        1 MOL      0.420235
    176 H83        -0.5620   -4.4660    0.2570 ho        1 MOL      0.420235
    177 O24        -1.3750    0.4300    2.7770 oh        1 MOL     -0.856363
    178 H84        -1.0540    1.3320    2.8740 ho        1 MOL      0.420235
    179 H85        -1.6020    0.1600    3.6670 ho        1 MOL      0.420235
    180 O25        -3.8760   -0.8110    1.1530 oh        1 MOL     -0.856363
    181 H86        -4.1890   -0.2460    0.4400 ho        1 MOL      0.420235
    182 H87        -4.6750   -1.1070    1.5800 ho        1 MOL      0.420235
    183 O26        -0.6150   -2.6030    3.4840 oh        1 MOL     -0.856363
    184 H88        -0.8840   -3.3610    4.0080 ho        1 MOL      0.420235
    185 H89         0.0290   -2.1620    4.0230 ho        1 MOL      0.420235
@<TRIPOS>BOND
     1    1    2 1   
     2    1    4 1   
     3    1    5 1   
     4    1    6 1   
     5    2    3 2   
     6    2    7 1   
     7    7    8 1   
     8    7   15 1   
     9    8    9 1   
    10    8   11 1   
    11    8   16 1   
    12    9   10 2   
    13    9   19 1   
    14   11   12 1   
    15   11   17 1   
    16   11   18 1   
    17   12   13 1   
    18   12   14 1   
    19   19   20 1   
    20   19   28 1   
    21   20   21 1   
    22   20   23 1   
    23   20   29 1   
    24   21   22 2   
    25   21   41 1   
    26   23   24 1   
    27   23   30 1   
    28   23   31 1   
    29   24   25 1   
    30   24   32 1   
    31   24   33 1   
    32   25   26 1   
    33   25   34 1   
    34   25   35 1   
    35   26   27 1   
    36   26   36 1   
    37   26   37 1   
    38   27   38 1   
    39   27   39 1   
    40   27   40 1   
    41   41   42 1   
    42   41   49 1   
    43   42   43 1   
    44   42   45 1   
    45   42   50 1   
    46   43   44 2   
    47   43   53 1   
    48   45   46 1   
    49   45   51 1   
    50   45   52 1   
    51   46   47 1   
    52   46   48 1   
    53   53   54 1   
    54   53   57 1   
    55   54   55 1   
    56   54   58 1   
    57   54   59 1   
    58   55   56 2   
    59   55   60 1   
    60   60   61 1   
    61   60   68 1   
    62   61   62 1   
    63   61   64 1   
    64   61   69 1   
    65   62   63 2   
    66   62   74 1   
    67   64   65 1   
    68   64   70 1   
    69   64   71 1   
    70   65   66 1   
    71   65   67 2   
    72   66   72 1   
    73   66   73 1   
    74   74   75 1   
    75   74   78 1   
    76   75   76 1   
    77   75   79 1   
    78   75   80 1   
    79   76   77 2   
    80   76   81 1   
    81   81   82 1   
    82   81   93 1   
    83   82   83 1   
    84   82   85 1   
    85   82   94 1   
    86   83   84 2   
    87   83  102 1   
    88   85   86 1   
    89   85   95 1   
    90   85   96 1   
    91   86   87 ar  
    92   86   88 ar  
    93   87   89 ar  
    94   87   97 1   
    95   88   90 ar  
    96   88   98 1   
    97   89   91 ar  
    98   89   99 1   
    99   90   91 ar  
   100   90  100 1   
   101   91   92 1   
   102   92  101 1   
   103  102  103 1   
   104  102  110 1   
   105  103  104 1   
   106  103  106 1   
   107  103  111 1   
   108  104  105 2   
   109  104  121 1   
   110  106  107 1   
   111  106  108 1   
   112  106  112 1   
   113  107  109 1   
   114  107  113 1   
   115  107  114 1   
   116  108  115 1   
   117  108  116 1   
   118  108  117 1   
   119  109  118 1   
   120  109  119 1   
   121  109  120 1   
   122  121  122 1   
   123  121  127 1   
   124  122  123 1   
   125  122  125 1   
   126  122  128 1   
   127  123  124 2   
   128  123  132 1   
   129  125  126 1   
   130  125  129 1   
   131  125  130 1   
   132  126  131 1   
   133  132  133 1   
   134  132  137 1   
   135  133  134 1   
   136  133  136 1   
   137  133  138 1   
   138  134  135 2   
   139  134  142 1   
   140  136  139 1   
   141  136  140 1   
   142  136  141 1   
   143  142  143 1   
   144  142  147 1   
   145  143  144 1   
   146  143  146 1   
   147  143  148 1   
   148  144  145 2   
   149  144  152 1   
   150  146  149 1   
   151  146  150 1   
   152  146  151 1   
   153  152  153 1   
   154  152  161 1   
   155  153  154 1   
   156  153  156 1   
   157  153  162 1   
   158  154  155 2   
   159  154  167 1   
   160  156  157 1   
   161  156  163 1   
   162  156  164 1   
   163  157  158 1   
   164  157  165 1   
   165  157  166 1   
   166  158  159 1   
   167  158  160 1   
   168  167  168 1   
   169  167  172 1   
   170  168  169 1   
   171  168  170 1   
   172  168  171 1   
   173  174  175 1   
   174  174  176 1   
   175  177  178 1   
   176  177  179 1   
   177  180  181 1   
   178  180  182 1   
   179  183  184 1   
   180  183  185 1   
@<TRIPOS>SUBSTRUCTURE
     1 MOL         1 TEMP              0 ****  ****    0 ROOT
