@<TRIPOS>MOLECULE
MOL
  188   182     1     0     0
SMALL
resp


@<TRIPOS>ATOM
      1 C1          3.6410    2.0170    5.5360 c3        1 MOL     -0.430507
      2 C2          2.9770    1.0360    4.5840 c         1 MOL      0.651002
      3 O1          1.8740    0.4450    4.8180 o         1 MOL     -0.573889
      4 H1          4.4080    1.4990    6.1120 hc        1 MOL      0.116730
      5 H2          4.0980    2.8250    4.9660 hc        1 MOL      0.116730
      6 H3          2.8930    2.4280    6.2140 hc        1 MOL      0.116730
      7 N1          3.6200    0.8600    3.4090 n         1 MOL     -0.445580
      8 C3          3.1800    0.0610    2.3370 c3        1 MOL      0.008703
      9 C4          4.2180   -0.8790    1.6350 c         1 MOL      0.352959
     10 O2          3.8190   -1.6290    0.7430 o         1 MOL     -0.385853
     11 C5          2.5130    0.9910    1.3430 c3        1 MOL     -0.193111
     12 C6          3.4100    2.0500    0.7890 c         1 MOL      0.697890
     13 O3          4.6550    1.8500    0.6630 o         1 MOL     -0.671926
     14 O4          2.9400    3.0570    0.2560 o         1 MOL     -0.671926
     15 H4          4.4950    1.3390    3.2600 hn        1 MOL      0.251878
     16 H5          2.4050   -0.6330    2.6810 h1        1 MOL      0.093584
     17 H6          1.6370    1.3840    1.8470 hc        1 MOL      0.063531
     18 H7          2.0630    0.4410    0.5250 hc        1 MOL      0.063531
     19 N2          5.4820   -0.7250    2.0550 n         1 MOL     -0.440982
     20 C7          6.5880   -1.7160    1.7380 c3        1 MOL      0.168490
     21 C8          7.1470   -1.5040    0.2690 c         1 MOL      0.677209
     22 O5          8.3550   -1.2780    0.1800 o         1 MOL     -0.574851
     23 C9          7.6480   -1.5690    2.8230 c3        1 MOL     -0.343982
     24 C10         7.1230   -1.9900    4.2340 c3        1 MOL      0.391817
     25 C11         8.2580   -2.2160    5.2710 c3        1 MOL     -0.308536
     26 C12         8.5540   -1.0610    6.1890 c3        1 MOL      0.156862
     27 N3          9.3650   -1.4290    7.4000 n4        1 MOL     -0.447526
     28 H8          5.6410   -0.0550    2.7880 hn        1 MOL      0.335652
     29 H9          6.1050   -2.6840    1.7670 h1        1 MOL      0.010008
     30 H10         7.9330   -0.5130    2.7950 hc        1 MOL      0.091329
     31 H11         8.3460   -2.3410    2.5150 hc        1 MOL      0.091329
     32 H12         6.6190   -2.9500    4.1950 hc        1 MOL     -0.080740
     33 H13         6.3360   -1.3020    4.5550 hc        1 MOL     -0.080740
     34 H14         9.1880   -2.5350    4.8010 hc        1 MOL      0.104391
     35 H15         7.9170   -3.0520    5.8810 hc        1 MOL      0.104391
     36 H16         7.6320   -0.5860    6.5010 hx        1 MOL      0.057242
     37 H17         9.0920   -0.2670    5.6730 hx        1 MOL      0.057242
     38 H18        10.2280   -1.8650    7.1380 hn        1 MOL      0.341032
     39 H19         9.5230   -0.5500    7.8700 hn        1 MOL      0.341032
     40 H20         8.9550   -2.1460    7.9870 hn        1 MOL      0.341032
     41 N4          6.2640   -1.5830   -0.7120 n         1 MOL     -0.471444
     42 C13         6.5170   -1.4830   -2.1410 c3        1 MOL      0.067804
     43 C14         5.6830   -0.4190   -2.9290 c         1 MOL      0.388262
     44 O6          5.6500   -0.4540   -4.1750 o         1 MOL     -0.468760
     45 C15         6.2910   -2.9640   -2.6810 c3        1 MOL     -0.086743
     46 C16         4.9090   -3.5190   -2.2230 c         1 MOL      0.622656
     47 O7          4.7580   -4.3330   -1.2350 o         1 MOL     -0.717769
     48 O8          3.9240   -2.9510   -2.6260 o         1 MOL     -0.717769
     49 H21         5.2770   -1.6200   -0.5000 hn        1 MOL      0.130326
     50 H22         7.5720   -1.3570   -2.3650 h1        1 MOL      0.090946
     51 H23         7.0670   -3.6150   -2.3040 hc        1 MOL      0.029909
     52 H24         6.2690   -2.9260   -3.7720 hc        1 MOL      0.029909
     53 N5          5.0730    0.5570   -2.2200 n         1 MOL     -0.137219
     54 C17         4.2910    1.6620   -2.8030 c3        1 MOL      0.057733
     55 C18         5.1000    2.6850   -3.5910 c         1 MOL      0.373928
     56 O9          6.2340    2.3690   -3.9900 o         1 MOL     -0.507995
     57 H25         5.1940    0.5090   -1.2210 hn        1 MOL      0.182851
     58 H26         3.8380    2.0930   -1.9140 h1        1 MOL      0.035859
     59 H27         3.5490    1.2310   -3.4800 h1        1 MOL      0.035859
     60 N6          4.6200    3.8890   -3.9210 n         1 MOL     -0.286784
     61 C19         3.2770    4.3870   -3.7150 c3        1 MOL      0.245679
     62 C20         3.3740    5.6150   -2.7210 c         1 MOL      0.624001
     63 O10         4.4480    6.1440   -2.4870 o         1 MOL     -0.558777
     64 C21         2.6480    4.9050   -4.9800 c3        1 MOL     -0.515760
     65 C22         2.4160    3.8860   -6.0980 c         1 MOL      0.667558
     66 N7          1.7940    2.7270   -6.0250 n         1 MOL     -0.691258
     67 O11         2.7660    4.1540   -7.2780 o         1 MOL     -0.553930
     68 H28         5.3150    4.5690   -4.1890 hn        1 MOL      0.262419
     69 H29         2.5910    3.6280   -3.3280 h1        1 MOL     -0.037274
     70 H30         3.2340    5.7200   -5.4080 hc        1 MOL      0.142193
     71 H31         1.6260    5.1910   -4.7530 hc        1 MOL      0.142193
     72 H32         1.2960    2.5220   -5.1700 hn        1 MOL      0.336192
     73 H33         1.4910    2.3150   -6.8970 hn        1 MOL      0.336192
     74 N8          2.3090    6.0660   -2.0260 n         1 MOL     -0.553409
     75 C23         1.0200    5.4050   -2.0280 c3        1 MOL      0.068938
     76 C24         0.1130    5.6670   -0.8020 c         1 MOL      0.647300
     77 O12         0.3460    6.7140   -0.1070 o         1 MOL     -0.551586
     78 H34         2.5230    6.6690   -1.2470 hn        1 MOL      0.334314
     79 H35         1.1380    4.3270   -2.0910 h1        1 MOL      0.023718
     80 H36         0.4170    5.7090   -2.8840 h1        1 MOL      0.023718
     81 N9         -0.9760    4.9390   -0.6960 n         1 MOL     -0.588797
     82 C25        -2.0270    5.1180    0.2930 c3        1 MOL      0.093518
     83 C26        -2.8840    3.7970    0.3380 c         1 MOL      0.638851
     84 O13        -2.7970    3.0550   -0.6490 o         1 MOL     -0.503352
     85 C27        -2.8070    6.2830   -0.0560 c3        1 MOL     -0.179031
     86 C28        -3.8460    6.7490    0.9620 ca        1 MOL      0.046171
     87 C29        -5.1850    6.3350    0.9020 ca        1 MOL     -0.117455
     88 C30        -3.4900    7.6740    1.9970 ca        1 MOL     -0.117455
     89 C31        -6.1270    6.7810    1.8260 ca        1 MOL     -0.323254
     90 C32        -4.4690    8.1870    2.9580 ca        1 MOL     -0.323254
     91 C33        -5.7680    7.6700    2.8820 ca        1 MOL      0.403119
     92 O14        -6.6440    7.8930    3.9340 oh        1 MOL     -0.523758
     93 H37        -1.1590    4.2660   -1.4310 hn        1 MOL      0.289087
     94 H38        -1.6450    5.1180    1.3190 h1        1 MOL      0.055979
     95 H39        -3.2110    6.0710   -1.0480 hc        1 MOL      0.092727
     96 H40        -2.1720    7.1590   -0.1560 hc        1 MOL      0.092727
     97 H41        -5.4720    5.6870    0.0830 ha        1 MOL      0.129271
     98 H42        -2.5030    8.1110    2.0700 ha        1 MOL      0.129271
     99 H43        -7.1290    6.3740    1.7350 ha        1 MOL      0.162382
    100 H44        -4.1700    8.9100    3.7040 ha        1 MOL      0.162382
    101 H45        -6.1800    8.1130    4.7440 ho        1 MOL      0.365998
    102 N10        -3.6320    3.5700    1.4530 n         1 MOL     -0.371733
    103 C34        -4.4490    2.3090    1.6250 c3        1 MOL     -0.370419
    104 C35        -5.4840    2.0030    0.5130 c         1 MOL      0.715078
    105 O15        -6.1230    2.9240    0.0150 o         1 MOL     -0.530173
    106 C36        -5.2150    2.2340    2.9670 c3        1 MOL      0.327622
    107 C37        -4.3720    1.6030    4.0690 c3        1 MOL     -0.168437
    108 C38        -5.8680    3.5480    3.4610 c3        1 MOL     -0.242290
    109 C39        -5.0260    1.0530    5.4050 c3        1 MOL     -0.149544
    110 H46        -3.6100    4.2320    2.2090 hn        1 MOL      0.241354
    111 H47        -3.8210    1.4110    1.6360 h1        1 MOL      0.114588
    112 H48        -6.0430    1.5420    2.8340 hc        1 MOL      0.012350
    113 H49        -3.6350    2.3210    4.4190 hc        1 MOL      0.071554
    114 H50        -3.9510    0.6690    3.6940 hc        1 MOL      0.071554
    115 H51        -6.5010    3.5250    4.3410 hc        1 MOL      0.064862
    116 H52        -4.9750    4.1280    3.6990 hc        1 MOL      0.064862
    117 H53        -6.3700    4.0610    2.6380 hc        1 MOL      0.064862
    118 H54        -4.3150    0.4030    5.9240 hc        1 MOL      0.040898
    119 H55        -5.3710    1.8770    6.0200 hc        1 MOL      0.040898
    120 H56        -5.9170    0.5100    5.0870 hc        1 MOL      0.040898
    121 N11        -5.5990    0.7390    0.1630 n         1 MOL     -0.555025
    122 C40        -6.6410    0.1340   -0.5970 c3        1 MOL      0.077178
    123 C41        -6.1380   -1.0740   -1.3670 c         1 MOL      0.716497
    124 O16        -5.2430   -1.7620   -0.9180 o         1 MOL     -0.535863
    125 C42        -7.9220   -0.1610    0.2850 c3        1 MOL      0.000868
    126 O17        -7.6480   -1.0950    1.3800 oh        1 MOL     -0.574667
    127 H57        -5.1380    0.0610    0.7590 hn        1 MOL      0.329304
    128 H58        -6.9310    0.8700   -1.3510 h1        1 MOL      0.048303
    129 H59        -8.6910   -0.4390   -0.4340 h1        1 MOL      0.054002
    130 H60        -8.1390    0.8210    0.7130 h1        1 MOL      0.054002
    131 H61        -8.4930   -1.4500    1.6580 ho        1 MOL      0.408759
    132 N12        -6.7390   -1.3100   -2.5430 n         1 MOL     -0.552079
    133 C43        -6.0400   -2.2370   -3.5260 c3        1 MOL      0.143259
    134 C44        -5.8980   -3.6680   -3.1090 c         1 MOL      0.346012
    135 O18        -5.1190   -4.4540   -3.6840 o         1 MOL     -0.460731
    136 C45        -4.7480   -1.5550   -3.9610 c3        1 MOL     -0.299168
    137 H62        -7.5640   -0.8140   -2.8680 hn        1 MOL      0.296601
    138 H63        -6.7000   -2.3150   -4.3990 h1        1 MOL      0.104054
    139 H64        -4.8680   -1.6510   -5.0400 hc        1 MOL      0.099467
    140 H65        -4.7780   -0.4910   -3.7370 hc        1 MOL      0.099467
    141 H66        -3.8060   -2.0480   -3.7200 hc        1 MOL      0.099467
    142 N13        -6.6360   -4.1400   -2.1100 n         1 MOL     -0.384582
    143 C46        -6.7540   -5.5050   -1.6040 c3        1 MOL      0.417334
    144 C47        -5.5040   -6.1020   -0.9960 c         1 MOL      0.313562
    145 O19        -5.0490   -7.1780   -1.3410 o         1 MOL     -0.476760
    146 C48        -7.5350   -6.3720   -2.5380 c3        1 MOL     -0.333309
    147 H67        -7.2690   -3.4330   -1.7820 hn        1 MOL      0.173513
    148 H68        -7.3880   -5.4640   -0.7260 h1        1 MOL     -0.028802
    149 H69        -7.8720   -7.2420   -1.9750 hc        1 MOL      0.085491
    150 H70        -8.4650   -5.9170   -2.8770 hc        1 MOL      0.085491
    151 H71        -6.9640   -6.6680   -3.4240 hc        1 MOL      0.085491
    152 N14        -4.7540   -5.2980   -0.2390 n         1 MOL     -0.308795
    153 C49        -3.4990   -5.6330    0.3710 c3        1 MOL      0.041805
    154 C50        -3.5300   -6.3790    1.7600 c         1 MOL      0.404298
    155 O20        -2.6970   -7.2720    2.0470 o         1 MOL     -0.522041
    156 C51        -2.4930   -4.5580    0.3990 c3        1 MOL      0.261924
    157 C52        -2.4190   -3.8740   -0.9490 c3        1 MOL      0.020748
    158 C53        -1.1700   -3.0060   -0.9220 c         1 MOL      0.642035
    159 O21        -0.1820   -3.3010   -1.6030 o         1 MOL     -0.704905
    160 O22        -1.1290   -2.0290   -0.1310 o         1 MOL     -0.704905
    161 H72        -5.0530   -4.3640    0.0160 hn        1 MOL      0.201184
    162 H73        -3.0790   -6.4090   -0.2720 h1        1 MOL      0.066380
    163 H74        -1.5070   -4.9980    0.5240 hc        1 MOL     -0.107295
    164 H75        -2.6470   -3.8100    1.1790 hc        1 MOL     -0.107295
    165 H76        -3.3500   -3.3230   -1.0750 hc        1 MOL      0.001530
    166 H77        -2.2040   -4.5700   -1.7620 hc        1 MOL      0.001530
    167 N15        -4.4430   -5.9140    2.5980 n         1 MOL     -0.246150
    168 C54        -4.7580   -6.5620    3.9480 c3        1 MOL     -0.210583
    169 H78        -4.0350   -6.2240    4.6910 h1        1 MOL      0.105453
    170 H79        -5.7620   -6.2780    4.2640 h1        1 MOL      0.105453
    171 H80        -4.7000   -7.6470    3.8540 h1        1 MOL      0.105453
    172 H81        -5.1310   -5.2630    2.2620 hn        1 MOL      0.213850
    173 Ca1         2.2420   -3.4430   -0.6900 Ca        1 MOL      1.744251
    174 O23         0.9130   -5.5490    0.2760 oh        1 MOL     -0.829427
    175 H82         1.4950   -6.0270    0.8600 ho        1 MOL      0.408601
    176 H83         0.4190   -6.2160   -0.1970 ho        1 MOL      0.408601
    177 O24         0.9840   -2.9800    1.5340 oh        1 MOL     -0.829427
    178 H84         0.0790   -2.9140    1.2560 ho        1 MOL      0.408601
    179 H85         0.9520   -2.8810    2.4870 ho        1 MOL      0.408601
    180 O25         3.3560   -5.0430    1.4190 oh        1 MOL     -0.829427
    181 H86         4.0610   -5.6910    1.4420 ho        1 MOL      0.408601
    182 H87         3.3750   -4.6360    2.2890 ho        1 MOL      0.408601
    183 O26         2.0690   -0.8510   -1.5430 oh        1 MOL     -0.829427
    184 H88         1.5830   -0.1450   -1.0980 ho        1 MOL      0.408601
    185 H89         2.2920   -0.4840   -2.3980 ho        1 MOL      0.408601
    186 O27         1.6930   -4.7610   -3.0710 oh        1 MOL     -0.829427
    187 H90         2.3240   -5.3480   -3.4730 ho        1 MOL      0.408601
    188 H91         0.9430   -4.7600   -3.6760 ho        1 MOL      0.408601
@<TRIPOS>BOND
     1    1    2 1   
     2    1    4 1   
     3    1    5 1   
     4    1    6 1   
     5    2    3 2   
     6    2    7 1   
     7    7    8 1   
     8    7   15 1   
     9    8    9 1   
    10    8   11 1   
    11    8   16 1   
    12    9   10 2   
    13    9   19 1   
    14   11   12 1   
    15   11   17 1   
    16   11   18 1   
    17   12   13 1   
    18   12   14 1   
    19   19   20 1   
    20   19   28 1   
    21   20   21 1   
    22   20   23 1   
    23   20   29 1   
    24   21   22 2   
    25   21   41 1   
    26   23   24 1   
    27   23   30 1   
    28   23   31 1   
    29   24   25 1   
    30   24   32 1   
    31   24   33 1   
    32   25   26 1   
    33   25   34 1   
    34   25   35 1   
    35   26   27 1   
    36   26   36 1   
    37   26   37 1   
    38   27   38 1   
    39   27   39 1   
    40   27   40 1   
    41   41   42 1   
    42   41   49 1   
    43   42   43 1   
    44   42   45 1   
    45   42   50 1   
    46   43   44 2   
    47   43   53 1   
    48   45   46 1   
    49   45   51 1   
    50   45   52 1   
    51   46   47 1   
    52   46   48 1   
    53   53   54 1   
    54   53   57 1   
    55   54   55 1   
    56   54   58 1   
    57   54   59 1   
    58   55   56 2   
    59   55   60 1   
    60   60   61 1   
    61   60   68 1   
    62   61   62 1   
    63   61   64 1   
    64   61   69 1   
    65   62   63 2   
    66   62   74 1   
    67   64   65 1   
    68   64   70 1   
    69   64   71 1   
    70   65   66 1   
    71   65   67 2   
    72   66   72 1   
    73   66   73 1   
    74   74   75 1   
    75   74   78 1   
    76   75   76 1   
    77   75   79 1   
    78   75   80 1   
    79   76   77 2   
    80   76   81 1   
    81   81   82 1   
    82   81   93 1   
    83   82   83 1   
    84   82   85 1   
    85   82   94 1   
    86   83   84 2   
    87   83  102 1   
    88   85   86 1   
    89   85   95 1   
    90   85   96 1   
    91   86   87 ar  
    92   86   88 ar  
    93   87   89 ar  
    94   87   97 1   
    95   88   90 ar  
    96   88   98 1   
    97   89   91 ar  
    98   89   99 1   
    99   90   91 ar  
   100   90  100 1   
   101   91   92 1   
   102   92  101 1   
   103  102  103 1   
   104  102  110 1   
   105  103  104 1   
   106  103  106 1   
   107  103  111 1   
   108  104  105 2   
   109  104  121 1   
   110  106  107 1   
   111  106  108 1   
   112  106  112 1   
   113  107  109 1   
   114  107  113 1   
   115  107  114 1   
   116  108  115 1   
   117  108  116 1   
   118  108  117 1   
   119  109  118 1   
   120  109  119 1   
   121  109  120 1   
   122  121  122 1   
   123  121  127 1   
   124  122  123 1   
   125  122  125 1   
   126  122  128 1   
   127  123  124 2   
   128  123  132 1   
   129  125  126 1   
   130  125  129 1   
   131  125  130 1   
   132  126  131 1   
   133  132  133 1   
   134  132  137 1   
   135  133  134 1   
   136  133  136 1   
   137  133  138 1   
   138  134  135 2   
   139  134  142 1   
   140  136  139 1   
   141  136  140 1   
   142  136  141 1   
   143  142  143 1   
   144  142  147 1   
   145  143  144 1   
   146  143  146 1   
   147  143  148 1   
   148  144  145 2   
   149  144  152 1   
   150  146  149 1   
   151  146  150 1   
   152  146  151 1   
   153  152  153 1   
   154  152  161 1   
   155  153  154 1   
   156  153  156 1   
   157  153  162 1   
   158  154  155 2   
   159  154  167 1   
   160  156  157 1   
   161  156  163 1   
   162  156  164 1   
   163  157  158 1   
   164  157  165 1   
   165  157  166 1   
   166  158  159 1   
   167  158  160 1   
   168  167  168 1   
   169  167  172 1   
   170  168  169 1   
   171  168  170 1   
   172  168  171 1   
   173  174  175 1   
   174  174  176 1   
   175  177  178 1   
   176  177  179 1   
   177  180  181 1   
   178  180  182 1   
   179  183  184 1   
   180  183  185 1   
   181  186  187 1   
   182  186  188 1   
@<TRIPOS>SUBSTRUCTURE
     1 MOL         1 TEMP              0 ****  ****    0 ROOT
