@<TRIPOS>MOLECULE
MOL
  188   182     1     0     0
SMALL
resp


@<TRIPOS>ATOM
      1 C1         -5.9930    1.8230    3.2070 c3        1 MOL     -0.391895
      2 C2         -6.6910    0.6670    2.4410 c         1 MOL      0.588892
      3 O1         -6.0600    0.0430    1.5680 o         1 MOL     -0.534779
      4 H1         -6.6740    2.2260    3.9560 hc        1 MOL      0.096583
      5 H2         -5.0960    1.4450    3.6970 hc        1 MOL      0.096583
      6 H3         -5.7190    2.6120    2.5050 hc        1 MOL      0.096583
      7 N1         -7.9390    0.3530    2.7300 n         1 MOL     -0.430616
      8 C3         -8.7500   -0.6470    2.0410 c3        1 MOL      0.123582
      9 C4         -8.7660   -0.4880    0.4850 c         1 MOL      0.394836
     10 O2         -9.0190   -1.4180   -0.3120 o         1 MOL     -0.464958
     11 C5         -8.3130   -2.0420    2.4900 c3        1 MOL     -0.190259
     12 C6         -9.4160   -3.0680    2.6030 c         1 MOL      0.683747
     13 O3         -9.0180   -4.1570    3.0760 o         1 MOL     -0.650993
     14 O4        -10.5950   -2.7890    2.3670 o         1 MOL     -0.650993
     15 H4         -8.3710    0.8790    3.4780 hn        1 MOL      0.289123
     16 H5         -9.7450   -0.4790    2.4340 h1        1 MOL      0.039981
     17 H6         -7.7280   -2.0940    3.4060 hc        1 MOL      0.068128
     18 H7         -7.6270   -2.3350    1.6910 hc        1 MOL      0.068128
     19 N2         -8.6010    0.7510    0.0530 n         1 MOL     -0.285798
     20 C7         -8.5390    1.1250   -1.3800 c3        1 MOL     -0.028975
     21 C8         -7.2170    1.0640   -2.0900 c         1 MOL      0.605357
     22 O5         -7.0020    1.6500   -3.1020 o         1 MOL     -0.572239
     23 C9         -9.1280    2.5400   -1.5290 c3        1 MOL      0.105603
     24 C10        -8.2970    3.7340   -0.9480 c3        1 MOL     -0.095540
     25 C11        -8.9420    5.0540   -1.0950 c3        1 MOL     -0.139916
     26 C12        -8.1690    6.2790   -0.4850 c3        1 MOL      0.071997
     27 N3         -9.0630    7.3500   -0.0380 n4        1 MOL     -0.138917
     28 H8         -8.4360    1.4400    0.7700 hn        1 MOL      0.126620
     29 H9         -9.2700    0.5050   -1.9080 h1        1 MOL      0.130014
     30 H10       -10.0550    2.4200   -0.9550 hc        1 MOL     -0.007130
     31 H11        -9.4940    2.7350   -2.5360 hc        1 MOL     -0.007130
     32 H12        -7.3800    3.7300   -1.5350 hc        1 MOL      0.061183
     33 H13        -7.9430    3.5460    0.0620 hc        1 MOL      0.061183
     34 H14        -9.9550    5.0560   -0.6820 hc        1 MOL      0.072029
     35 H15        -8.9280    5.3210   -2.1520 hc        1 MOL      0.072029
     36 H16        -7.5210    6.7350   -1.2360 hx        1 MOL      0.058055
     37 H17        -7.5590    5.9800    0.3590 hx        1 MOL      0.058055
     38 H18        -9.7590    7.0000    0.6130 hn        1 MOL      0.180476
     39 H19        -8.7350    8.1360    0.5050 hn        1 MOL      0.180476
     40 H20        -9.6130    7.7400   -0.7950 hn        1 MOL      0.180476
     41 N4         -6.1790    0.4750   -1.4450 n         1 MOL     -0.565667
     42 C13        -4.7780    0.6080   -1.8940 c3        1 MOL      0.078921
     43 C14        -4.4740   -0.5190   -2.9050 c         1 MOL      0.654574
     44 O6         -4.8960   -1.7170   -2.8420 o         1 MOL     -0.514253
     45 C15        -3.8480    0.5670   -0.6480 c3        1 MOL     -0.242716
     46 C16        -2.4170    0.7720   -0.9870 c         1 MOL      0.628172
     47 O7         -1.7620    1.7820   -0.7200 o         1 MOL     -0.724075
     48 O8         -1.8180   -0.2060   -1.5790 o         1 MOL     -0.724075
     49 H21        -6.3640    0.0840   -0.5400 hn        1 MOL      0.332982
     50 H22        -4.6140    1.5600   -2.3980 h1        1 MOL      0.066278
     51 H23        -3.9660   -0.3760   -0.1040 hc        1 MOL      0.080681
     52 H24        -4.1860    1.2600    0.1270 hc        1 MOL      0.080681
     53 N5         -3.7670   -0.2360   -4.0080 n         1 MOL     -0.472377
     54 C17        -3.4080   -1.2000   -5.1220 c3        1 MOL      0.042442
     55 C18        -2.5930   -2.3390   -4.6760 c         1 MOL      0.354799
     56 O9         -2.7810   -3.4540   -5.2090 o         1 MOL     -0.506009
     57 H25        -3.4570    0.7150   -4.1090 hn        1 MOL      0.219004
     58 H26        -3.0170   -0.7100   -6.0040 h1        1 MOL      0.088322
     59 H27        -4.3320   -1.6240   -5.5280 h1        1 MOL      0.088322
     60 N6         -1.7150   -2.1930   -3.6340 n         1 MOL     -0.151693
     61 C19        -1.0100   -3.3380   -2.9730 c3        1 MOL      0.061181
     62 C20        -1.3770   -3.4870   -1.4700 c         1 MOL      0.403142
     63 O10        -0.5590   -3.9230   -0.6800 o         1 MOL     -0.418561
     64 C21         0.5530   -3.5100   -3.2390 c3        1 MOL     -0.390507
     65 C22         1.3310   -2.3100   -2.7480 c         1 MOL      0.776026
     66 N7          2.6400   -2.3820   -2.7270 n         1 MOL     -0.795982
     67 O11         0.8840   -1.2670   -2.2570 o         1 MOL     -0.701977
     68 H28        -1.5240   -1.3000   -3.2040 hn        1 MOL      0.067664
     69 H29        -1.4650   -4.2570   -3.3500 h1        1 MOL      0.096034
     70 H30         0.8330   -3.5190   -4.2920 hc        1 MOL      0.141661
     71 H31         0.9260   -4.3970   -2.7200 hc        1 MOL      0.141661
     72 H32         3.1460   -3.0120   -3.3270 hn        1 MOL      0.371612
     73 H33         3.0450   -1.5740   -2.2760 hn        1 MOL      0.371612
     74 N8         -2.6580   -3.1280   -1.1650 n         1 MOL     -0.281112
     75 C23        -3.3780   -3.3920    0.0640 c3        1 MOL     -0.170345
     76 C24        -2.8020   -2.6250    1.2630 c         1 MOL      0.603864
     77 O12        -3.2250   -2.9670    2.3680 o         1 MOL     -0.549515
     78 H34        -3.2240   -2.8700   -1.9640 hn        1 MOL      0.270526
     79 H35        -3.3840   -4.4430    0.3270 h1        1 MOL      0.126732
     80 H36        -4.4270   -3.1160   -0.0350 h1        1 MOL      0.126732
     81 N9         -1.8240   -1.7470    1.1000 n         1 MOL     -0.567727
     82 C25        -1.0580   -1.0510    2.1210 c3        1 MOL      0.187027
     83 C26         0.2870   -0.5440    1.5510 c         1 MOL      0.258967
     84 O13         0.3780   -0.2370    0.3680 o         1 MOL     -0.568992
     85 C27        -1.9220    0.1260    2.6180 c3        1 MOL     -0.203505
     86 C28        -1.2000    1.0080    3.5850 ca        1 MOL      0.087521
     87 C29        -0.6800    0.4150    4.7910 ca        1 MOL     -0.197823
     88 C30        -0.9700    2.3270    3.3020 ca        1 MOL     -0.197823
     89 C31        -0.1690    1.2720    5.7880 ca        1 MOL     -0.267150
     90 C32        -0.2530    3.1330    4.2370 ca        1 MOL     -0.267150
     91 C33         0.0570    2.6600    5.5450 ca        1 MOL      0.326147
     92 O14         0.5580    3.4580    6.5200 oh        1 MOL     -0.446004
     93 H37        -1.5500   -1.5810    0.1480 hn        1 MOL      0.441909
     94 H38        -0.8560   -1.7790    2.9160 h1        1 MOL      0.050137
     95 H39        -2.6510   -0.3910    3.2420 hc        1 MOL      0.137916
     96 H40        -2.3890    0.6720    1.8000 hc        1 MOL      0.137916
     97 H41        -0.8950   -0.6260    5.0020 ha        1 MOL      0.150998
     98 H42        -1.1970    2.7280    2.3330 ha        1 MOL      0.150998
     99 H43         0.0100    0.9020    6.7870 ha        1 MOL      0.153823
    100 H44         0.0500    4.0960    3.8660 ha        1 MOL      0.153823
    101 H45         0.4590    4.3780    6.2860 ho        1 MOL      0.352057
    102 N10         1.3210   -0.6850    2.3720 n         1 MOL     -0.060666
    103 C34         2.7570   -0.4220    1.9970 c3        1 MOL     -0.001078
    104 C35         3.3890   -1.3760    1.0050 c         1 MOL      0.441342
    105 O15         4.0390   -1.0340    0.0850 o         1 MOL     -0.455906
    106 C36         3.6260   -0.5240    3.3460 c3        1 MOL      0.032397
    107 C37         3.1210    0.5500    4.4190 c3        1 MOL      0.117204
    108 C38         5.1360   -0.5960    3.2750 c3        1 MOL     -0.549722
    109 C39         3.1490    1.9300    3.9170 c3        1 MOL      0.090706
    110 H46         1.1140   -1.0610    3.2850 hn        1 MOL      0.164165
    111 H47         2.8370    0.5760    1.5650 h1        1 MOL      0.011884
    112 H48         3.3750   -1.4780    3.8020 hc        1 MOL     -0.004802
    113 H49         3.7100    0.5440    5.3380 hc        1 MOL     -0.011386
    114 H50         2.1130    0.3030    4.7580 hc        1 MOL     -0.011386
    115 H51         5.4100   -1.6080    2.9740 hc        1 MOL      0.160351
    116 H52         5.5460    0.1620    2.6270 hc        1 MOL      0.160351
    117 H53         5.4880   -0.5130    4.3020 hc        1 MOL      0.160351
    118 H54         2.8320    2.6020    4.7140 hc        1 MOL     -0.030535
    119 H55         4.1270    2.2980    3.6000 hc        1 MOL     -0.030535
    120 H56         2.3720    2.0710    3.1660 hc        1 MOL     -0.030535
    121 N11         2.9420   -2.5910    1.1500 n         1 MOL      0.050351
    122 C40         3.2650   -3.7460    0.3190 c3        1 MOL     -0.487583
    123 C41         4.7710   -4.0530    0.1250 c         1 MOL      0.543690
    124 O16         5.1480   -4.4990   -1.0500 o         1 MOL     -0.513461
    125 C42         2.6880   -5.0060    0.9680 c3        1 MOL      0.444540
    126 O17         1.2750   -4.9690    1.1350 oh        1 MOL     -0.587332
    127 H57         2.3820   -2.7960    1.9640 hn        1 MOL      0.087968
    128 H58         2.8680   -3.5520   -0.6770 h1        1 MOL      0.198169
    129 H59         3.1990   -5.3060    1.8810 h1        1 MOL     -0.007381
    130 H60         3.0440   -5.8550    0.3690 h1        1 MOL     -0.007381
    131 H61         0.8910   -4.5300    0.3710 ho        1 MOL      0.309396
    132 N12         5.5670   -3.8490    1.2000 n         1 MOL     -0.472190
    133 C43         7.0230   -3.8930    1.1220 c3        1 MOL      0.182701
    134 C44         7.7120   -2.7430    0.3170 c         1 MOL      0.372993
    135 O18         8.9460   -2.6350    0.3020 o         1 MOL     -0.504569
    136 C45         7.4360   -5.2910    0.8310 c3        1 MOL     -0.398094
    137 H62         5.2080   -3.5540    2.0920 hn        1 MOL      0.290795
    138 H63         7.3520   -3.7960    2.1570 h1        1 MOL      0.065808
    139 H64         6.7380   -5.9470    1.3410 hc        1 MOL      0.127603
    140 H65         7.4400   -5.4880   -0.2370 hc        1 MOL      0.127603
    141 H66         8.4320   -5.4710    1.2380 hc        1 MOL      0.127603
    142 N13         6.9280   -1.9070   -0.4050 n         1 MOL     -0.342461
    143 C46         7.4340   -0.8610   -1.3610 c3        1 MOL      0.177520
    144 C47         7.5000    0.5470   -0.6490 c         1 MOL      0.600404
    145 O19         6.7050    0.7590    0.2530 o         1 MOL     -0.594783
    146 C48         6.5150   -0.9430   -2.6310 c3        1 MOL     -0.091536
    147 H67         5.9270   -1.9820   -0.3240 hn        1 MOL      0.219698
    148 H68         8.4170   -1.1590   -1.7360 h1        1 MOL      0.041075
    149 H69         5.4740   -0.6900   -2.4440 hc        1 MOL      0.024072
    150 H70         7.0220   -0.2250   -3.2790 hc        1 MOL      0.024072
    151 H71         6.4230   -1.8790   -3.1770 hc        1 MOL      0.024072
    152 N14         8.3700    1.4450   -1.0090 n         1 MOL     -0.657045
    153 C49         8.7350    2.7750   -0.4430 c3        1 MOL      0.040055
    154 C50         9.1320    2.7710    1.0180 c         1 MOL      0.414102
    155 O20         9.0910    3.8430    1.6870 o         1 MOL     -0.514394
    156 C51         7.6680    3.8240   -0.8610 c3        1 MOL      0.097936
    157 C52         7.8460    4.1580   -2.3860 c3        1 MOL     -0.256517
    158 C53         8.9240    5.2370   -2.5380 c         1 MOL      0.716899
    159 O21         8.5580    6.4320   -2.2020 o         1 MOL     -0.657211
    160 O22        10.0780    5.0540   -2.9730 o         1 MOL     -0.657211
    161 H72         8.8070    1.2350   -1.8990 hn        1 MOL      0.335015
    162 H73         9.6940    3.0650   -0.8740 h1        1 MOL      0.107155
    163 H74         7.6880    4.7510   -0.2850 hc        1 MOL      0.016914
    164 H75         6.6460    3.4770   -0.6590 hc        1 MOL      0.016914
    165 H76         6.9230    4.4500   -2.9010 hc        1 MOL      0.017403
    166 H77         8.1140    3.3110   -3.0190 hc        1 MOL      0.017403
    167 N15         9.5050    1.6220    1.5260 n         1 MOL     -0.181444
    168 C54         9.8750    1.4300    2.9380 c3        1 MOL     -0.076272
    169 H78         9.3700    2.1780    3.5490 h1        1 MOL      0.062421
    170 H79         9.5720    0.4340    3.2600 h1        1 MOL      0.062421
    171 H80        10.9530    1.5380    3.0490 h1        1 MOL      0.062421
    172 H81         9.5610    0.8320    0.9020 hn        1 MOL      0.214634
    173 Ca1         0.4680    1.2110   -1.8510 Ca        1 MOL      1.798330
    174 O23         1.8760    3.0820   -0.3630 oh        1 MOL     -0.819764
    175 H82         2.8150    2.9540   -0.1920 ho        1 MOL      0.407592
    176 H83         1.6230    3.7980    0.2170 ho        1 MOL      0.407592
    177 O24         2.0650    2.7230   -3.5390 oh        1 MOL     -0.819764
    178 H84         1.6190    3.1020   -4.3030 ho        1 MOL      0.407592
    179 H85         2.4710    3.4730   -3.1100 ho        1 MOL      0.407592
    180 O25        -0.4800    0.5800   -4.3440 oh        1 MOL     -0.819764
    181 H86        -0.9220    1.3190   -4.7520 ho        1 MOL      0.407592
    182 H87        -0.5980   -0.1420   -4.9640 ho        1 MOL      0.407592
    183 O26         3.0450    0.7220   -1.4430 oh        1 MOL     -0.819764
    184 H88         3.3800    0.2700   -0.6750 ho        1 MOL      0.407592
    185 H89         3.6300    1.4760   -1.5520 ho        1 MOL      0.407592
    186 O27        -0.3690    3.6240   -2.7320 oh        1 MOL     -0.819764
    187 H90        -1.1310    3.5640   -3.3100 ho        1 MOL      0.407592
    188 H91        -0.1100    4.5410   -2.7720 ho        1 MOL      0.407592
@<TRIPOS>BOND
     1    1    2 1   
     2    1    4 1   
     3    1    5 1   
     4    1    6 1   
     5    2    3 2   
     6    2    7 1   
     7    7    8 1   
     8    7   15 1   
     9    8    9 1   
    10    8   11 1   
    11    8   16 1   
    12    9   10 2   
    13    9   19 1   
    14   11   12 1   
    15   11   17 1   
    16   11   18 1   
    17   12   13 1   
    18   12   14 1   
    19   19   20 1   
    20   19   28 1   
    21   20   21 1   
    22   20   23 1   
    23   20   29 1   
    24   21   22 2   
    25   21   41 1   
    26   23   24 1   
    27   23   30 1   
    28   23   31 1   
    29   24   25 1   
    30   24   32 1   
    31   24   33 1   
    32   25   26 1   
    33   25   34 1   
    34   25   35 1   
    35   26   27 1   
    36   26   36 1   
    37   26   37 1   
    38   27   38 1   
    39   27   39 1   
    40   27   40 1   
    41   41   42 1   
    42   41   49 1   
    43   42   43 1   
    44   42   45 1   
    45   42   50 1   
    46   43   44 2   
    47   43   53 1   
    48   45   46 1   
    49   45   51 1   
    50   45   52 1   
    51   46   47 1   
    52   46   48 1   
    53   53   54 1   
    54   53   57 1   
    55   54   55 1   
    56   54   58 1   
    57   54   59 1   
    58   55   56 2   
    59   55   60 1   
    60   60   61 1   
    61   60   68 1   
    62   61   62 1   
    63   61   64 1   
    64   61   69 1   
    65   62   63 2   
    66   62   74 1   
    67   64   65 1   
    68   64   70 1   
    69   64   71 1   
    70   65   66 1   
    71   65   67 2   
    72   66   72 1   
    73   66   73 1   
    74   74   75 1   
    75   74   78 1   
    76   75   76 1   
    77   75   79 1   
    78   75   80 1   
    79   76   77 2   
    80   76   81 1   
    81   81   82 1   
    82   81   93 1   
    83   82   83 1   
    84   82   85 1   
    85   82   94 1   
    86   83   84 2   
    87   83  102 1   
    88   85   86 1   
    89   85   95 1   
    90   85   96 1   
    91   86   87 ar  
    92   86   88 ar  
    93   87   89 ar  
    94   87   97 1   
    95   88   90 ar  
    96   88   98 1   
    97   89   91 ar  
    98   89   99 1   
    99   90   91 ar  
   100   90  100 1   
   101   91   92 1   
   102   92  101 1   
   103  102  103 1   
   104  102  110 1   
   105  103  104 1   
   106  103  106 1   
   107  103  111 1   
   108  104  105 2   
   109  104  121 1   
   110  106  107 1   
   111  106  108 1   
   112  106  112 1   
   113  107  109 1   
   114  107  113 1   
   115  107  114 1   
   116  108  115 1   
   117  108  116 1   
   118  108  117 1   
   119  109  118 1   
   120  109  119 1   
   121  109  120 1   
   122  121  122 1   
   123  121  127 1   
   124  122  123 1   
   125  122  125 1   
   126  122  128 1   
   127  123  124 2   
   128  123  132 1   
   129  125  126 1   
   130  125  129 1   
   131  125  130 1   
   132  126  131 1   
   133  132  133 1   
   134  132  137 1   
   135  133  134 1   
   136  133  136 1   
   137  133  138 1   
   138  134  135 2   
   139  134  142 1   
   140  136  139 1   
   141  136  140 1   
   142  136  141 1   
   143  142  143 1   
   144  142  147 1   
   145  143  144 1   
   146  143  146 1   
   147  143  148 1   
   148  144  145 2   
   149  144  152 1   
   150  146  149 1   
   151  146  150 1   
   152  146  151 1   
   153  152  153 1   
   154  152  161 1   
   155  153  154 1   
   156  153  156 1   
   157  153  162 1   
   158  154  155 2   
   159  154  167 1   
   160  156  157 1   
   161  156  163 1   
   162  156  164 1   
   163  157  158 1   
   164  157  165 1   
   165  157  166 1   
   166  158  159 1   
   167  158  160 1   
   168  167  168 1   
   169  167  172 1   
   170  168  169 1   
   171  168  170 1   
   172  168  171 1   
   173  174  175 1   
   174  174  176 1   
   175  177  178 1   
   176  177  179 1   
   177  180  181 1   
   178  180  182 1   
   179  183  184 1   
   180  183  185 1   
   181  186  187 1   
   182  186  188 1   
@<TRIPOS>SUBSTRUCTURE
     1 MOL         1 TEMP              0 ****  ****    0 ROOT
