@<TRIPOS>MOLECULE
MOL
  195   189     1     0     0
SMALL
resp


@<TRIPOS>ATOM
      1 C1         -4.4910   -2.8040   -5.7570 c3        1 MOL     -0.331277
      2 C2         -4.3600   -1.9330   -4.4950 c         1 MOL      0.581710
      3 O1         -3.9150   -0.7710   -4.5270 o         1 MOL     -0.547524
      4 H1         -3.5010   -3.1170   -6.0870 hc        1 MOL      0.095160
      5 H2         -5.0930   -3.6840   -5.5300 hc        1 MOL      0.095160
      6 H3         -4.9730   -2.2280   -6.5470 hc        1 MOL      0.095160
      7 N1         -4.5510   -2.4870   -3.3060 n         1 MOL     -0.456826
      8 C3         -4.3200   -1.9090   -1.9810 c3        1 MOL      0.149532
      9 C4         -2.8800   -2.0290   -1.4960 c         1 MOL      0.469666
     10 O2         -2.5860   -1.6180   -0.3980 o         1 MOL     -0.566413
     11 C5         -5.3060   -2.4220   -0.9340 c3        1 MOL     -0.352003
     12 C6         -5.6060   -3.9330   -0.8420 c         1 MOL      0.805788
     13 O3         -5.8950   -4.5470    0.2030 o         1 MOL     -0.735889
     14 O4         -5.4300   -4.6930   -1.8010 o         1 MOL     -0.735889
     15 H4         -5.0360   -3.3720   -3.2930 hn        1 MOL      0.272667
     16 H5         -4.3900   -0.8210   -2.0460 h1        1 MOL      0.047950
     17 H6         -6.2900   -1.9560   -0.9980 hc        1 MOL      0.076396
     18 H7         -4.9200   -2.0760    0.0190 hc        1 MOL      0.076396
     19 N2         -1.9500   -2.5500   -2.2480 n         1 MOL     -0.126088
     20 C7         -0.5140   -2.6540   -2.0790 c3        1 MOL     -0.022288
     21 C8          0.2080   -1.8010   -3.0710 c         1 MOL      0.264683
     22 O5         -0.0380   -1.8170   -4.2770 o         1 MOL     -0.521739
     23 C9          0.0270   -4.1730   -2.0420 c3        1 MOL      0.070296
     24 C10        -0.7150   -4.9660   -0.9400 c3        1 MOL     -0.119053
     25 C11        -2.0360   -5.6780   -1.3670 c3        1 MOL     -0.049410
     26 C12        -2.7840   -6.3610   -0.1940 c3        1 MOL      0.014113
     27 N3         -4.1660   -6.8260   -0.5570 n4        1 MOL     -0.243632
     28 H8         -2.2470   -2.9280   -3.1350 hn        1 MOL      0.175278
     29 H9         -0.2560   -2.1490   -1.1520 h1        1 MOL      0.202618
     30 H10         1.0890   -4.1980   -1.8010 hc        1 MOL      0.031831
     31 H11        -0.0180   -4.6910   -2.9990 hc        1 MOL      0.031831
     32 H12        -0.9460   -4.2540   -0.1500 hc        1 MOL      0.048695
     33 H13        -0.0250   -5.7560   -0.6350 hc        1 MOL      0.048695
     34 H14        -1.6730   -6.4380   -2.0620 hc        1 MOL      0.015746
     35 H15        -2.7360   -5.0120   -1.8530 hc        1 MOL      0.015746
     36 H16        -2.9660   -5.6240    0.5890 hx        1 MOL      0.075534
     37 H17        -2.2050   -7.2090    0.1730 hx        1 MOL      0.075534
     38 H18        -4.1910   -6.9810   -1.5580 hn        1 MOL      0.278543
     39 H19        -4.1940   -7.7780   -0.2220 hn        1 MOL      0.278543
     40 H20        -4.9070   -6.1660   -0.3950 hn        1 MOL      0.278543
     41 N4          1.0610   -0.8990   -2.6930 n         1 MOL     -0.122018
     42 C13         1.7790   -0.6000   -1.3750 c3        1 MOL     -0.049600
     43 C14         2.1150   -1.8440   -0.4540 c         1 MOL      0.106952
     44 O6          1.3880   -2.2170    0.4560 o         1 MOL     -0.467394
     45 C15         0.9540    0.4140   -0.4800 c3        1 MOL     -0.112265
     46 C16         0.8640    1.7320   -1.2240 c         1 MOL      0.452941
     47 O7         -0.0050    2.4860   -0.7350 o         1 MOL     -0.638802
     48 O8          1.5930    2.0740   -2.1650 o         1 MOL     -0.638802
     49 H21         1.5170   -0.4380   -3.4720 hn        1 MOL      0.233016
     50 H22         2.7480   -0.1670   -1.5980 h1        1 MOL      0.048887
     51 H23         1.2990    0.5470    0.5500 hc        1 MOL      0.075772
     52 H24        -0.0470    0.0080   -0.3100 hc        1 MOL      0.075772
     53 N5          3.1130   -2.6240   -0.6680 n         1 MOL     -0.144740
     54 C17         4.2560   -2.3550   -1.5040 c3        1 MOL     -0.089411
     55 C18         5.4520   -3.2200   -1.1050 c         1 MOL      0.446105
     56 O9          5.2740   -4.1880   -0.2840 o         1 MOL     -0.546276
     57 H25         3.1840   -3.4430   -0.0760 hn        1 MOL      0.255871
     58 H26         4.6370   -1.3280   -1.5090 h1        1 MOL      0.081303
     59 H27         4.0800   -2.5740   -2.5560 h1        1 MOL      0.081303
     60 N6          6.6780   -2.8670   -1.4340 n         1 MOL     -0.301489
     61 C19         7.2130   -1.7360   -2.2260 c3        1 MOL      0.013878
     62 C20         7.8300   -0.6880   -1.3600 c         1 MOL      0.606782
     63 O10         8.1770   -0.9250   -0.2310 o         1 MOL     -0.475887
     64 C21         8.2730   -2.2490   -3.2120 c3        1 MOL     -0.184629
     65 C22         9.4470   -2.9020   -2.5820 c         1 MOL      0.744262
     66 O11        10.5780   -2.4260   -2.8200 o         1 MOL     -0.657948
     67 O12         9.3860   -3.9940   -1.9750 o         1 MOL     -0.657948
     68 H28         7.4510   -3.4280   -1.1140 hn        1 MOL      0.242944
     69 H29         6.4830   -1.1840   -2.8240 h1        1 MOL      0.016224
     70 H30         8.5460   -1.3590   -3.7770 hc        1 MOL      0.023640
     71 H31         7.7390   -2.9750   -3.8240 hc        1 MOL      0.023640
     72 N7          8.1040    0.5230   -1.9070 n         1 MOL     -0.419640
     73 C23         8.6720    1.6350   -1.2280 c3        1 MOL     -0.277428
     74 C24         7.6900    2.3260   -0.1590 c         1 MOL      0.513295
     75 O13         8.2260    3.1250    0.6290 o         1 MOL     -0.551915
     76 H32         7.9020    0.6840   -2.8810 hn        1 MOL      0.302505
     77 H33         8.7700    2.4270   -1.9830 h1        1 MOL      0.164451
     78 H34         9.6530    1.4640   -0.7950 h1        1 MOL      0.164451
     79 N8          6.4130    1.9470   -0.0130 n         1 MOL     -0.355463
     80 C25         5.4030    2.3340    1.0260 c3        1 MOL      0.195491
     81 C26         4.6110    1.1570    1.4630 c         1 MOL      0.198566
     82 O14         4.0200    0.5020    0.5510 o         1 MOL     -0.325076
     83 C27         4.5030    3.4120    0.3680 c3        1 MOL      0.501439
     84 C28         5.2380    4.6870    0.0950 c3        1 MOL     -0.255853
     85 O15         3.3620    3.7960    1.2090 oh        1 MOL     -0.733029
     86 H35         6.1700    1.1060   -0.5180 hn        1 MOL      0.093424
     87 H36         5.9010    2.8090    1.8720 h1        1 MOL      0.072804
     88 H37         4.0810    2.9730   -0.5270 h1        1 MOL     -0.080822
     89 H38         2.7130    4.1030    0.5720 ho        1 MOL      0.477924
     90 H39         5.6550    5.1160    1.0020 hc        1 MOL      0.054847
     91 H40         6.0290    4.5860   -0.6480 hc        1 MOL      0.054847
     92 H41         4.5520    5.4050   -0.3670 hc        1 MOL      0.054847
     93 N9          4.5660    0.7670    2.7120 n         1 MOL     -0.140961
     94 C29         3.9040   -0.5310    3.0350 c3        1 MOL     -0.401662
     95 C30         2.7100   -0.4420    4.0230 c         1 MOL      0.460997
     96 O16         2.2310   -1.4800    4.5690 o         1 MOL     -0.505220
     97 C31         5.0540   -1.5610    3.4470 c3        1 MOL      0.359893
     98 C32         5.6820   -1.1680    4.8330 c3        1 MOL      0.034491
     99 C33         6.0800   -1.8180    2.2700 c3        1 MOL     -0.547920
    100 C34         6.4430   -2.3810    5.3010 c3        1 MOL     -0.221640
    101 H42         5.1660    1.2190    3.3860 hn        1 MOL      0.223173
    102 H43         3.5330   -1.0160    2.1250 h1        1 MOL      0.262329
    103 H44         4.4870   -2.4600    3.6790 hc        1 MOL     -0.014495
    104 H45         4.8710   -1.0590    5.5510 hc        1 MOL      0.004490
    105 H46         6.3640   -0.3280    4.7020 hc        1 MOL      0.004490
    106 H47         5.4380   -2.0950    1.4230 hc        1 MOL      0.158115
    107 H48         6.5730   -0.9170    1.9150 hc        1 MOL      0.158115
    108 H49         6.7510   -2.6620    2.4150 hc        1 MOL      0.158115
    109 H50         7.1480   -2.7310    4.5560 hc        1 MOL      0.052075
    110 H51         6.8810   -2.1600    6.2840 hc        1 MOL      0.052075
    111 H52         5.7880   -3.2500    5.3500 hc        1 MOL      0.052075
    112 N10         2.0720    0.7200    4.2340 n         1 MOL     -0.351450
    113 C35         0.8220    1.0940    5.0060 c3        1 MOL      0.031993
    114 C36        -0.5000    0.4310    4.4930 c         1 MOL      0.433336
    115 O17        -1.2860    0.2330    5.3950 o         1 MOL     -0.537228
    116 C37         0.7690    2.6170    5.2140 c3        1 MOL      0.120615
    117 C38         0.4740    3.3790    3.9290 c3        1 MOL     -0.052751
    118 O18         1.9930    2.9920    5.8370 oh        1 MOL     -0.595342
    119 H53         2.5040    1.5050    3.7680 hn        1 MOL      0.226967
    120 H54         0.8460    0.7980    6.0470 h1        1 MOL      0.084219
    121 H55        -0.0390    2.7170    5.9410 h1        1 MOL      0.061769
    122 H56         1.8720    2.8530    6.7730 ho        1 MOL      0.402330
    123 H57         0.5070    4.4660    3.9770 hc        1 MOL      0.030771
    124 H58         1.1380    3.0850    3.1110 hc        1 MOL      0.030771
    125 H59        -0.4680    3.0910    3.4700 hc        1 MOL      0.030771
    126 N11        -0.6970    0.2770    3.1810 n         1 MOL     -0.129757
    127 C39        -1.9560   -0.0820    2.4950 c3        1 MOL     -0.352876
    128 C40        -3.0510    0.9920    2.8360 c         1 MOL      0.763098
    129 O19        -2.7260    2.0010    3.4330 o         1 MOL     -0.528191
    130 C41        -2.4070   -1.5020    2.8160 c3        1 MOL      0.489952
    131 C42        -1.3280   -2.5970    2.5450 c3        1 MOL     -0.180636
    132 O20        -3.4180   -1.8810    2.0140 oh        1 MOL     -0.736688
    133 H60         0.0530    0.6360    2.6130 hn        1 MOL      0.211912
    134 H61        -1.8510    0.0440    1.4170 h1        1 MOL      0.116192
    135 H62        -2.5680   -1.6840    3.8730 h1        1 MOL      0.004380
    136 H63        -3.1610   -1.9200    1.0920 ho        1 MOL      0.499954
    137 H64        -0.9930   -2.5300    1.5070 hc        1 MOL      0.028217
    138 H65        -0.4450   -2.4220    3.1770 hc        1 MOL      0.028217
    139 H66        -1.7830   -3.5560    2.7830 hc        1 MOL      0.028217
    140 N12        -4.2730    0.8500    2.3400 n         1 MOL     -0.640611
    141 C43        -5.4390    1.6770    2.6620 c3        1 MOL      0.025745
    142 C44        -6.0910    2.3070    1.4200 c         1 MOL      0.427996
    143 O21        -7.1740    2.9180    1.5320 o         1 MOL     -0.545371
    144 C45        -6.3640    0.8750    3.5410 c3        1 MOL     -0.142859
    145 C46        -7.1330   -0.1960    2.7500 c3        1 MOL      0.045081
    146 C47        -8.3760   -0.7850    3.5280 c3        1 MOL     -0.220219
    147 C48        -8.5430   -2.2220    3.0110 c3        1 MOL      0.194908
    148 N13        -9.4190   -2.9190    3.9020 n4        1 MOL     -0.286870
    149 H67        -4.4470    0.0150    1.7890 hn        1 MOL      0.218133
    150 H68        -5.0310    2.4630    3.2930 h1        1 MOL      0.097985
    151 H69        -7.0930    1.5400    3.9850 hc        1 MOL      0.090045
    152 H70        -5.8400    0.4590    4.4060 hc        1 MOL      0.090045
    153 H71        -6.5270   -1.0410    2.4300 hc        1 MOL      0.060790
    154 H72        -7.4600    0.1650    1.7680 hc        1 MOL      0.060790
    155 H73        -9.2510   -0.1500    3.3890 hc        1 MOL      0.060905
    156 H74        -8.0530   -0.8650    4.5640 hc        1 MOL      0.060905
    157 H75        -7.5930   -2.7420    2.9620 hx        1 MOL      0.054384
    158 H76        -8.8740   -2.1830    1.9700 hx        1 MOL      0.054384
    159 H77        -9.7790   -3.7880    3.5430 hn        1 MOL      0.267486
    160 H78        -8.8930   -2.9930    4.7610 hn        1 MOL      0.267486
    161 H79       -10.2260   -2.3930    4.2090 hn        1 MOL      0.267486
    162 N14        -5.4240    2.2400    0.2630 n         1 MOL     -0.022278
    163 C49        -6.0320    2.7850   -0.9370 c3        1 MOL     -0.650737
    164 C50        -6.9750    1.8100   -1.7150 c         1 MOL      0.486975
    165 O22        -6.5910    0.6750   -1.9790 o         1 MOL     -0.443695
    166 C51        -5.0060    3.3830   -1.9060 c3        1 MOL      0.180288
    167 C52        -4.1710    4.4580   -1.2330 c3        1 MOL      0.423193
    168 C53        -3.1260    5.1080   -2.2000 c         1 MOL      0.565086
    169 O23        -3.4920    5.6860   -3.2410 o         1 MOL     -0.728005
    170 O24        -1.8850    4.9580   -1.9310 o         1 MOL     -0.728005
    171 H80        -4.4740    1.9000    0.2280 hn        1 MOL      0.308483
    172 H81        -6.5720    3.6950   -0.6530 h1        1 MOL      0.205398
    173 H82        -5.5400    3.9300   -2.6770 hc        1 MOL      0.003266
    174 H83        -4.2800    2.6300   -2.1970 hc        1 MOL      0.003266
    175 H84        -3.6760    4.0100   -0.3680 hc        1 MOL     -0.143981
    176 H85        -4.8240    5.2590   -0.8730 hc        1 MOL     -0.143981
    177 N15        -8.2360    2.2590   -2.0320 n         1 MOL     -0.249987
    178 C54        -9.3170    1.3950   -2.5990 c3        1 MOL     -0.180178
    179 H86       -10.2760    1.9010   -2.4960 h1        1 MOL      0.097175
    180 H87        -9.1160    1.2090   -3.6540 h1        1 MOL      0.097175
    181 H88        -9.3450    0.4480   -2.0610 h1        1 MOL      0.097175
    182 H89        -8.4270    3.2100   -1.7430 hn        1 MOL      0.263124
    183 Ca1         0.4620    4.3870   -2.8590 Ca        1 MOL      1.693540
    184 O25        -1.5890    5.5910   -4.7880 oh        1 MOL     -0.830066
    185 H90        -2.3990    5.8070   -4.3190 ho        1 MOL      0.401939
    186 H91        -1.2860    6.4150   -5.1590 ho        1 MOL      0.401939
    187 O26         1.5760    5.4760   -0.5460 oh        1 MOL     -0.830066
    188 H92         0.9050    5.6770    0.1090 ho        1 MOL      0.401939
    189 H93         1.8640    6.3300   -0.8610 ho        1 MOL      0.401939
    190 O27        -1.6650    2.5600   -3.4280 oh        1 MOL     -0.830066
    191 H94        -2.0690    2.0840   -4.1580 ho        1 MOL      0.401939
    192 H95        -2.3050    2.4830   -2.7190 ho        1 MOL      0.401939
    193 O28         3.2690    4.4040   -3.3020 oh        1 MOL     -0.830066
    194 H96         4.0900    4.4710   -2.8140 ho        1 MOL      0.401939
    195 H97         3.4350    3.7570   -3.9880 ho        1 MOL      0.401939
@<TRIPOS>BOND
     1    1    2 1   
     2    1    4 1   
     3    1    5 1   
     4    1    6 1   
     5    2    3 2   
     6    2    7 1   
     7    7    8 1   
     8    7   15 1   
     9    8    9 1   
    10    8   11 1   
    11    8   16 1   
    12    9   10 2   
    13    9   19 1   
    14   11   12 1   
    15   11   17 1   
    16   11   18 1   
    17   12   13 1   
    18   12   14 1   
    19   19   20 1   
    20   19   28 1   
    21   20   21 1   
    22   20   23 1   
    23   20   29 1   
    24   21   22 2   
    25   21   41 1   
    26   23   24 1   
    27   23   30 1   
    28   23   31 1   
    29   24   25 1   
    30   24   32 1   
    31   24   33 1   
    32   25   26 1   
    33   25   34 1   
    34   25   35 1   
    35   26   27 1   
    36   26   36 1   
    37   26   37 1   
    38   27   38 1   
    39   27   39 1   
    40   27   40 1   
    41   41   42 1   
    42   41   49 1   
    43   42   43 1   
    44   42   45 1   
    45   42   50 1   
    46   43   44 2   
    47   43   53 1   
    48   45   46 1   
    49   45   51 1   
    50   45   52 1   
    51   46   47 1   
    52   46   48 1   
    53   53   54 1   
    54   53   57 1   
    55   54   55 1   
    56   54   58 1   
    57   54   59 1   
    58   55   56 2   
    59   55   60 1   
    60   60   61 1   
    61   60   68 1   
    62   61   62 1   
    63   61   64 1   
    64   61   69 1   
    65   62   63 2   
    66   62   72 1   
    67   64   65 1   
    68   64   70 1   
    69   64   71 1   
    70   65   66 1   
    71   65   67 1   
    72   72   73 1   
    73   72   76 1   
    74   73   74 1   
    75   73   77 1   
    76   73   78 1   
    77   74   75 2   
    78   74   79 1   
    79   79   80 1   
    80   79   86 1   
    81   80   81 1   
    82   80   83 1   
    83   80   87 1   
    84   81   82 2   
    85   81   93 1   
    86   83   84 1   
    87   83   85 1   
    88   83   88 1   
    89   84   90 1   
    90   84   91 1   
    91   84   92 1   
    92   85   89 1   
    93   93   94 1   
    94   93  101 1   
    95   94   95 1   
    96   94   97 1   
    97   94  102 1   
    98   95   96 2   
    99   95  112 1   
   100   97   98 1   
   101   97   99 1   
   102   97  103 1   
   103   98  100 1   
   104   98  104 1   
   105   98  105 1   
   106   99  106 1   
   107   99  107 1   
   108   99  108 1   
   109  100  109 1   
   110  100  110 1   
   111  100  111 1   
   112  112  113 1   
   113  112  119 1   
   114  113  114 1   
   115  113  116 1   
   116  113  120 1   
   117  114  115 2   
   118  114  126 1   
   119  116  117 1   
   120  116  118 1   
   121  116  121 1   
   122  117  123 1   
   123  117  124 1   
   124  117  125 1   
   125  118  122 1   
   126  126  127 1   
   127  126  133 1   
   128  127  128 1   
   129  127  130 1   
   130  127  134 1   
   131  128  129 2   
   132  128  140 1   
   133  130  131 1   
   134  130  132 1   
   135  130  135 1   
   136  131  137 1   
   137  131  138 1   
   138  131  139 1   
   139  132  136 1   
   140  140  141 1   
   141  140  149 1   
   142  141  142 1   
   143  141  144 1   
   144  141  150 1   
   145  142  143 2   
   146  142  162 1   
   147  144  145 1   
   148  144  151 1   
   149  144  152 1   
   150  145  146 1   
   151  145  153 1   
   152  145  154 1   
   153  146  147 1   
   154  146  155 1   
   155  146  156 1   
   156  147  148 1   
   157  147  157 1   
   158  147  158 1   
   159  148  159 1   
   160  148  160 1   
   161  148  161 1   
   162  162  163 1   
   163  162  171 1   
   164  163  164 1   
   165  163  166 1   
   166  163  172 1   
   167  164  165 2   
   168  164  177 1   
   169  166  167 1   
   170  166  173 1   
   171  166  174 1   
   172  167  168 1   
   173  167  175 1   
   174  167  176 1   
   175  168  169 1   
   176  168  170 1   
   177  177  178 1   
   178  177  182 1   
   179  178  179 1   
   180  178  180 1   
   181  178  181 1   
   182  184  185 1   
   183  184  186 1   
   184  187  188 1   
   185  187  189 1   
   186  190  191 1   
   187  190  192 1   
   188  193  194 1   
   189  193  195 1   
@<TRIPOS>SUBSTRUCTURE
     1 MOL         1 TEMP              0 ****  ****    0 ROOT
