@<TRIPOS>MOLECULE
MOL
  178   175     1     0     0
SMALL
resp


@<TRIPOS>ATOM
      1 C1          3.0860   -1.6020    4.2820 c3        1 MOL     -0.209928
      2 C2          4.3710   -0.9900    3.9070 c         1 MOL      0.615921
      3 O1          4.5180    0.2160    3.9970 o         1 MOL     -0.586459
      4 H1          3.2700   -2.5220    4.8350 hc        1 MOL      0.050206
      5 H2          2.5220   -0.9100    4.9070 hc        1 MOL      0.050206
      6 H3          2.5140   -1.8280    3.3820 hc        1 MOL      0.050206
      7 N1          5.4580   -1.7920    3.6180 n         1 MOL     -0.500273
      8 C3          6.6650   -1.1340    3.0440 c3        1 MOL      0.208315
      9 C4          6.5760   -1.1290    1.4170 c         1 MOL      0.333274
     10 O2          5.5840   -1.6990    0.8730 o         1 MOL     -0.394323
     11 C5          7.9210   -1.9320    3.4320 c3        1 MOL     -0.216107
     12 C6          7.8900   -3.4750    3.3200 c         1 MOL      0.715580
     13 O3          6.8710   -4.1080    2.8990 o         1 MOL     -0.702419
     14 O4          8.8610   -4.0500    3.8920 o         1 MOL     -0.702419
     15 H4          5.5200   -2.7930    3.7100 hn        1 MOL      0.280201
     16 H5          6.7500   -0.1150    3.4210 h1        1 MOL      0.014652
     17 H6          8.1540   -1.7110    4.4780 hc        1 MOL      0.026198
     18 H7          8.7370   -1.5960    2.8010 hc        1 MOL      0.026198
     19 N2          7.5310   -0.5100    0.7210 n         1 MOL     -0.466110
     20 C7          7.4560   -0.2970   -0.6900 c3        1 MOL      0.320043
     21 C8          6.2900    0.6450   -1.1020 c         1 MOL      0.378038
     22 O5          5.9500    1.6440   -0.4900 o         1 MOL     -0.515587
     23 C9          8.7300    0.3400   -1.3210 c3        1 MOL     -0.286167
     24 H8          8.3100   -0.1530    1.2570 hn        1 MOL      0.287135
     25 H9          7.3920   -1.2540   -1.2090 h1        1 MOL      0.008443
     26 H10         9.5510   -0.3690   -1.4570 hc        1 MOL      0.073999
     27 H11         8.5280    0.7820   -2.2980 hc        1 MOL      0.073999
     28 H12         9.0750    1.1580   -0.6980 hc        1 MOL      0.073999
     29 N3          5.7440    0.2840   -2.2940 n         1 MOL     -0.427988
     30 C10         4.6350    0.9990   -2.9930 c3        1 MOL     -0.052963
     31 C11         5.0990    2.3860   -3.4740 c         1 MOL      0.777695
     32 O6          6.1660    2.3660   -4.0720 o         1 MOL     -0.573801
     33 C12         4.0050    0.1200   -4.1990 c3        1 MOL     -0.525682
     34 C13         3.6920   -1.3890   -3.8440 c         1 MOL      0.903903
     35 O7          3.7280   -2.2750   -4.7330 o         1 MOL     -0.714145
     36 O8          3.4110   -1.5860   -2.6060 o         1 MOL     -0.714145
     37 H13         6.1390   -0.5220   -2.7590 hn        1 MOL      0.300701
     38 H14         3.8180    1.2500   -2.3180 h1        1 MOL      0.086242
     39 H15         4.7710    0.1730   -4.9730 hc        1 MOL      0.120463
     40 H16         3.0290    0.5370   -4.4120 hc        1 MOL      0.120463
     41 N4          4.3000    3.4230   -3.1990 n         1 MOL     -0.568095
     42 C14         4.6910    4.8440   -3.3940 c3        1 MOL     -0.012317
     43 C15         3.5040    5.7920   -3.2160 c         1 MOL      0.528599
     44 O9          3.5980    6.9320   -3.7040 o         1 MOL     -0.531492
     45 H17         3.4060    3.1840   -2.8020 hn        1 MOL      0.291488
     46 H18         5.1460    4.8380   -4.3850 h1        1 MOL      0.082807
     47 H19         5.4530    5.1700   -2.6970 h1        1 MOL      0.082807
     48 N5          2.3370    5.3410   -2.6850 n         1 MOL     -0.333853
     49 C16         1.3120    6.2960   -2.2690 c3        1 MOL     -0.017199
     50 C17         0.5320    5.8930   -0.9890 c         1 MOL      0.528827
     51 O10         0.3130    4.7000   -0.7710 o         1 MOL     -0.440734
     52 C18         0.3420    6.5480   -3.5090 c3        1 MOL     -0.224121
     53 C19        -0.2020    7.9540   -3.4920 c         1 MOL      0.607290
     54 N6         -1.2650    8.2800   -2.7780 n         1 MOL     -0.712653
     55 O11         0.3080    8.8410   -4.0630 o         1 MOL     -0.524833
     56 H20         2.2460    4.4440   -2.2370 hn        1 MOL      0.238515
     57 H21         1.8460    7.2460   -2.2290 h1        1 MOL      0.075559
     58 H22        -0.4690    5.8380   -3.6620 hc        1 MOL      0.093357
     59 H23         0.9700    6.4890   -4.3920 hc        1 MOL      0.093357
     60 H24        -1.8530    7.5290   -2.4550 hn        1 MOL      0.324333
     61 H25        -1.7020    9.1730   -2.9170 hn        1 MOL      0.324333
     62 N7          0.0900    6.8780   -0.2590 n         1 MOL     -0.466515
     63 C20        -0.5920    6.7330    1.0060 c3        1 MOL     -0.156745
     64 C21        -2.0940    6.3370    1.0850 c         1 MOL      0.546012
     65 O12        -2.7660    6.0610    0.0680 o         1 MOL     -0.492860
     66 H26         0.3010    7.8470   -0.4680 hn        1 MOL      0.333182
     67 H27        -0.4720    7.6580    1.5700 h1        1 MOL      0.100482
     68 H28        -0.0840    5.9050    1.5010 h1        1 MOL      0.100482
     69 N8         -2.5500    6.2350    2.3320 n         1 MOL     -0.349881
     70 C22        -3.9170    5.8730    2.6460 c3        1 MOL     -0.372337
     71 C23        -4.0870    4.3440    2.8370 c         1 MOL      0.722441
     72 O13        -5.2970    3.9700    2.8400 o         1 MOL     -0.602842
     73 C24        -4.4740    6.7160    3.8430 c3        1 MOL      0.620241
     74 C25        -3.8070    6.4890    5.1260 c3        1 MOL     -0.337587
     75 O14        -4.5380    8.0990    3.6160 oh        1 MOL     -0.682869
     76 H29        -1.9680    6.5150    3.1050 hn        1 MOL      0.233647
     77 H30        -4.5500    6.0700    1.7830 h1        1 MOL      0.155116
     78 H31        -5.4530    6.3100    4.0800 h1        1 MOL     -0.005224
     79 H32        -3.6810    8.5210    3.6740 ho        1 MOL      0.401055
     80 H33        -3.7580    7.3550    5.7870 hc        1 MOL      0.068937
     81 H34        -4.3780    5.7030    5.6380 hc        1 MOL      0.068937
     82 H35        -2.8170    6.0690    4.9450 hc        1 MOL      0.068937
     83 N9         -3.0640    3.5070    2.9640 n         1 MOL     -0.409553
     84 C26        -3.2230    2.1000    3.1200 c3        1 MOL     -0.045229
     85 C27        -2.1670    1.3360    2.2360 c         1 MOL      0.493100
     86 O15        -1.0050    1.7510    2.0760 o         1 MOL     -0.506381
     87 C28        -3.1680    1.6730    4.5650 c3        1 MOL      0.165803
     88 C29        -4.0240    2.5090    5.5900 c3        1 MOL      0.053221
     89 C30        -3.4000    0.1970    4.9170 c3        1 MOL      0.001393
     90 C31        -5.4700    2.1820    5.6200 c3        1 MOL     -0.210182
     91 H36        -2.1200    3.8700    2.8950 hn        1 MOL      0.257575
     92 H37        -4.1820    1.8300    2.6810 h1        1 MOL      0.064731
     93 H38        -2.1550    1.8300    4.9370 hc        1 MOL     -0.026019
     94 H39        -3.8980    3.5770    5.3970 hc        1 MOL     -0.017486
     95 H40        -3.6320    2.3590    6.6000 hc        1 MOL     -0.017486
     96 H41        -4.4360   -0.1020    4.7590 hc        1 MOL     -0.007436
     97 H42        -2.9600   -0.4650    4.1640 hc        1 MOL     -0.007436
     98 H43        -3.0160   -0.0150    5.9120 hc        1 MOL     -0.007436
     99 H44        -5.9600    2.3280    4.6610 hc        1 MOL      0.048036
    100 H45        -5.5300    1.1140    5.8410 hc        1 MOL      0.048036
    101 H46        -5.8590    2.8530    6.3950 hc        1 MOL      0.048036
    102 N10        -2.6280    0.2680    1.6140 n         1 MOL     -0.449511
    103 C32        -1.7850   -0.5880    0.7890 c3        1 MOL      0.329825
    104 C33        -2.6130   -1.3540   -0.3030 c         1 MOL      0.331661
    105 O16        -2.1900   -2.4290   -0.7920 o         1 MOL     -0.328836
    106 C34        -0.9790   -1.6300    1.5900 c3        1 MOL     -0.184940
    107 C35         0.3410   -1.9980    0.8520 c         1 MOL      0.762777
    108 O17         0.6620   -1.5810   -0.2670 o         1 MOL     -0.734171
    109 O18         1.1400   -2.7500    1.4730 o         1 MOL     -0.734171
    110 H47        -3.5940    0.0450    1.8110 hn        1 MOL      0.269619
    111 H48        -1.0970    0.0640    0.2500 h1        1 MOL      0.035331
    112 H49        -1.6120   -2.4590    1.8830 hc        1 MOL      0.021879
    113 H50        -0.6300   -1.1810    2.5190 hc        1 MOL      0.021879
    114 N11        -3.7310   -0.7790   -0.8050 n         1 MOL     -0.458353
    115 C36        -4.5560   -1.3820   -1.8340 c3        1 MOL      0.221759
    116 C37        -4.9900   -2.8270   -1.4580 c         1 MOL      0.299358
    117 O19        -5.2940   -2.9980   -0.2660 o         1 MOL     -0.515101
    118 C38        -5.7640   -0.4500   -1.8190 c3        1 MOL     -0.075625
    119 C39        -7.0400   -0.8840   -2.5840 ca        1 MOL      0.020026
    120 C40        -8.0550   -1.5430   -1.9680 ca        1 MOL     -0.127698
    121 C41        -7.1390   -0.6850   -3.9510 ca        1 MOL     -0.127698
    122 C42        -9.2400   -2.0330   -2.6350 ca        1 MOL     -0.145796
    123 C43        -8.3250   -1.0740   -4.6680 ca        1 MOL     -0.145796
    124 C44        -9.4170   -1.7230   -3.9690 ca        1 MOL     -0.083660
    125 H51        -4.0090    0.1050   -0.4020 hn        1 MOL      0.215313
    126 H52        -4.0680   -1.3420   -2.8090 h1        1 MOL      0.028699
    127 H53        -5.5570    0.4740   -2.3470 hc        1 MOL      0.059983
    128 H54        -6.0750   -0.1090   -0.8350 hc        1 MOL      0.059983
    129 H55        -7.9250   -1.7520   -0.9250 ha        1 MOL      0.110178
    130 H56        -6.2900   -0.2920   -4.4810 ha        1 MOL      0.110178
    131 H57       -10.0470   -2.5210   -2.1150 ha        1 MOL      0.115195
    132 H58        -8.3700   -0.8220   -5.7270 ha        1 MOL      0.115195
    133 H59       -10.3240   -1.9170   -4.5200 ha        1 MOL      0.096998
    134 N12        -4.7860   -3.8190   -2.3190 n         1 MOL     -0.031465
    135 C45        -5.0770   -5.2460   -2.1740 c3        1 MOL     -0.000558
    136 C46        -4.3570   -5.9210   -0.9220 c         1 MOL      0.236298
    137 O20        -4.6850   -7.0060   -0.5070 o         1 MOL     -0.493748
    138 C47        -4.6520   -5.8580   -3.5080 c3        1 MOL      0.074768
    139 C48        -4.8930   -4.7850   -4.5150 c3        1 MOL     -0.053561
    140 C49        -4.4900   -3.5720   -3.7180 c3        1 MOL      0.077530
    141 H60        -6.1370   -5.4940   -2.0560 h1        1 MOL      0.060143
    142 H61        -3.5860   -6.0920   -3.4630 hc        1 MOL      0.014832
    143 H62        -5.1100   -6.8000   -3.7850 hc        1 MOL      0.014832
    144 H63        -4.3440   -4.9990   -5.4320 hc        1 MOL      0.019226
    145 H64        -5.9760   -4.8280   -4.6730 hc        1 MOL      0.019226
    146 H65        -3.4240   -3.3500   -3.6210 h1        1 MOL     -0.001620
    147 H66        -5.0160   -2.7880   -4.2460 h1        1 MOL     -0.001620
    148 N13        -3.2270   -5.3400   -0.4340 n         1 MOL     -0.013312
    149 C50        -2.2310   -6.0700    0.4080 c3        1 MOL     -0.117430
    150 C51        -2.6390   -6.0400    1.8970 c         1 MOL      0.349257
    151 O21        -2.3480   -7.0080    2.6390 o         1 MOL     -0.526459
    152 C52        -0.8350   -5.5900    0.2580 c3        1 MOL      0.074148
    153 C53         0.0540   -5.9180   -0.9580 c3        1 MOL     -0.106593
    154 C54         1.2110   -4.9670   -0.9940 c         1 MOL      0.751920
    155 O22         2.2140   -5.0910   -0.2950 o         1 MOL     -0.779062
    156 O23         1.3030   -4.0760   -1.8940 o         1 MOL     -0.779062
    157 H67        -3.1320   -4.3900   -0.7470 hn        1 MOL      0.097411
    158 H68        -2.2540   -7.1290    0.1390 h1        1 MOL      0.105626
    159 H69        -0.2490   -5.9760    1.0990 hc        1 MOL      0.018435
    160 H70        -0.9050   -4.5070    0.3900 hc        1 MOL      0.018435
    161 H71        -0.6700   -5.7240   -1.7520 hc        1 MOL      0.000970
    162 H72         0.3430   -6.9680   -0.9960 hc        1 MOL      0.000970
    163 N14        -3.3470   -4.9970    2.3190 n         1 MOL     -0.034662
    164 C55        -3.8340   -4.7080    3.6800 c3        1 MOL     -0.319189
    165 H73        -4.6320   -3.9690    3.6290 h1        1 MOL      0.110506
    166 H74        -4.2140   -5.6230    4.1320 h1        1 MOL      0.110506
    167 H75        -3.0150   -4.3170    4.2830 h1        1 MOL      0.110506
    168 H76        -3.7400   -4.4390    1.5820 hn        1 MOL      0.163789
    169 Ca1         3.1910   -2.7000   -0.3420 Ca        1 MOL      1.748165
    170 O24         3.1650   -0.3110    0.8850 oh        1 MOL     -0.895002
    171 H77         2.4930    0.3660    0.8670 ho        1 MOL      0.426656
    172 H78         3.9600    0.1450    1.1490 ho        1 MOL      0.426656
    173 O25         5.5040   -3.3410   -1.5220 oh        1 MOL     -0.895002
    174 H79         6.2390   -3.8020   -1.1130 ho        1 MOL      0.426656
    175 H80         5.5420   -3.5910   -2.4470 ho        1 MOL      0.426656
    176 O26         4.3950   -4.1090    1.8060 oh        1 MOL     -0.895002
    177 H81         4.0010   -4.2980    2.6680 ho        1 MOL      0.426656
    178 H82         5.3370   -4.1280    1.9700 ho        1 MOL      0.426656
@<TRIPOS>BOND
     1    1    2 1   
     2    1    4 1   
     3    1    5 1   
     4    1    6 1   
     5    2    3 2   
     6    2    7 1   
     7    7    8 1   
     8    7   15 1   
     9    8    9 1   
    10    8   11 1   
    11    8   16 1   
    12    9   10 2   
    13    9   19 1   
    14   11   12 1   
    15   11   17 1   
    16   11   18 1   
    17   12   13 1   
    18   12   14 1   
    19   19   20 1   
    20   19   24 1   
    21   20   21 1   
    22   20   23 1   
    23   20   25 1   
    24   21   22 2   
    25   21   29 1   
    26   23   26 1   
    27   23   27 1   
    28   23   28 1   
    29   29   30 1   
    30   29   37 1   
    31   30   31 1   
    32   30   33 1   
    33   30   38 1   
    34   31   32 2   
    35   31   41 1   
    36   33   34 1   
    37   33   39 1   
    38   33   40 1   
    39   34   35 1   
    40   34   36 1   
    41   41   42 1   
    42   41   45 1   
    43   42   43 1   
    44   42   46 1   
    45   42   47 1   
    46   43   44 2   
    47   43   48 1   
    48   48   49 1   
    49   48   56 1   
    50   49   50 1   
    51   49   52 1   
    52   49   57 1   
    53   50   51 2   
    54   50   62 1   
    55   52   53 1   
    56   52   58 1   
    57   52   59 1   
    58   53   54 1   
    59   53   55 2   
    60   54   60 1   
    61   54   61 1   
    62   62   63 1   
    63   62   66 1   
    64   63   64 1   
    65   63   67 1   
    66   63   68 1   
    67   64   65 2   
    68   64   69 1   
    69   69   70 1   
    70   69   76 1   
    71   70   71 1   
    72   70   73 1   
    73   70   77 1   
    74   71   72 2   
    75   71   83 1   
    76   73   74 1   
    77   73   75 1   
    78   73   78 1   
    79   74   80 1   
    80   74   81 1   
    81   74   82 1   
    82   75   79 1   
    83   83   84 1   
    84   83   91 1   
    85   84   85 1   
    86   84   87 1   
    87   84   92 1   
    88   85   86 2   
    89   85  102 1   
    90   87   88 1   
    91   87   89 1   
    92   87   93 1   
    93   88   90 1   
    94   88   94 1   
    95   88   95 1   
    96   89   96 1   
    97   89   97 1   
    98   89   98 1   
    99   90   99 1   
   100   90  100 1   
   101   90  101 1   
   102  102  103 1   
   103  102  110 1   
   104  103  104 1   
   105  103  106 1   
   106  103  111 1   
   107  104  105 2   
   108  104  114 1   
   109  106  107 1   
   110  106  112 1   
   111  106  113 1   
   112  107  108 1   
   113  107  109 1   
   114  114  115 1   
   115  114  125 1   
   116  115  116 1   
   117  115  118 1   
   118  115  126 1   
   119  116  117 2   
   120  116  134 1   
   121  118  119 1   
   122  118  127 1   
   123  118  128 1   
   124  119  120 ar  
   125  119  121 ar  
   126  120  122 ar  
   127  120  129 1   
   128  121  123 ar  
   129  121  130 1   
   130  122  124 ar  
   131  122  131 1   
   132  123  124 ar  
   133  123  132 1   
   134  124  133 1   
   135  134  135 1   
   136  134  140 1   
   137  135  136 1   
   138  135  138 1   
   139  135  141 1   
   140  136  137 2   
   141  136  148 1   
   142  138  139 1   
   143  138  142 1   
   144  138  143 1   
   145  139  140 1   
   146  139  144 1   
   147  139  145 1   
   148  140  146 1   
   149  140  147 1   
   150  148  149 1   
   151  148  157 1   
   152  149  150 1   
   153  149  152 1   
   154  149  158 1   
   155  150  151 2   
   156  150  163 1   
   157  152  153 1   
   158  152  159 1   
   159  152  160 1   
   160  153  154 1   
   161  153  161 1   
   162  153  162 1   
   163  154  155 1   
   164  154  156 1   
   165  163  164 1   
   166  163  168 1   
   167  164  165 1   
   168  164  166 1   
   169  164  167 1   
   170  170  171 1   
   171  170  172 1   
   172  173  174 1   
   173  173  175 1   
   174  176  177 1   
   175  176  178 1   
@<TRIPOS>SUBSTRUCTURE
     1 MOL         1 TEMP              0 ****  ****    0 ROOT
