@<TRIPOS>MOLECULE
MOL
  185   180     1     0     0
SMALL
resp


@<TRIPOS>ATOM
      1 C1          6.3730   -0.5510   -3.7410 c3        1 MOL     -0.312518
      2 C2          6.5920   -0.9610   -2.2760 c         1 MOL      0.542268
      3 O1          5.7430   -0.6610   -1.3830 o         1 MOL     -0.503160
      4 H1          6.1000    0.5030   -3.7860 hc        1 MOL      0.082881
      5 H2          7.2920   -0.7110   -4.3050 hc        1 MOL      0.082881
      6 H3          5.5730   -1.1520   -4.1720 hc        1 MOL      0.082881
      7 N1          7.8090   -1.4450   -2.0460 n         1 MOL     -0.459118
      8 C3          8.2960   -1.6750   -0.6550 c3        1 MOL      0.077329
      9 C4          8.1210   -0.5060    0.3180 c         1 MOL      0.467422
     10 O2          7.9060   -0.6500    1.5320 o         1 MOL     -0.484845
     11 C5          7.8520   -3.0680   -0.1540 c3        1 MOL     -0.289659
     12 C6          8.3510   -4.2370   -1.0790 c         1 MOL      0.723519
     13 O3          9.4870   -4.7030   -0.8700 o         1 MOL     -0.667006
     14 O4          7.5960   -4.6470   -1.9480 o         1 MOL     -0.667006
     15 H4          8.4630   -1.4700   -2.8160 hn        1 MOL      0.334670
     16 H5          9.3490   -1.7900   -0.9300 h1        1 MOL      0.053726
     17 H6          6.7770   -3.1350   -0.0180 hc        1 MOL      0.094218
     18 H7          8.2950   -3.1370    0.8440 hc        1 MOL      0.094218
     19 N2          8.0240    0.6830   -0.1860 n         1 MOL     -0.438395
     20 C7          7.8540    1.9490    0.5400 c3        1 MOL     -0.009970
     21 C8          6.4020    2.3180    0.9080 c         1 MOL      0.562261
     22 O5          6.1580    3.3830    1.4540 o         1 MOL     -0.592103
     23 C9          8.5010    3.0480   -0.3640 c3        1 MOL     -0.154870
     24 C10         9.9800    2.7530   -0.7590 c3        1 MOL      0.171371
     25 C11        10.6690    3.8680   -1.6530 c3        1 MOL     -0.234160
     26 C12        10.0630    4.0120   -3.0330 c3        1 MOL      0.157797
     27 N3         10.5390    5.1930   -3.7850 n4        1 MOL     -0.228529
     28 H8          7.9050    0.7200   -1.1930 hn        1 MOL      0.209930
     29 H9          8.3560    1.8360    1.4940 h1        1 MOL      0.142892
     30 H10         8.4760    3.9650    0.2270 hc        1 MOL      0.067710
     31 H11         7.9660    3.2110   -1.2950 hc        1 MOL      0.067710
     32 H12        10.0790    1.8240   -1.3280 hc        1 MOL      0.005364
     33 H13        10.6440    2.6110    0.0940 hc        1 MOL      0.005364
     34 H14        11.6850    3.5080   -1.7520 hc        1 MOL      0.072027
     35 H15        10.6080    4.8590   -1.1870 hc        1 MOL      0.072027
     36 H16         8.9800    4.0840   -2.9080 hx        1 MOL      0.037592
     37 H17        10.3390    3.1860   -3.6960 hx        1 MOL      0.037592
     38 H18        10.2700    6.0570   -3.3300 hn        1 MOL      0.271380
     39 H19        11.5510    5.2540   -3.7850 hn        1 MOL      0.271380
     40 H20        10.4250    5.1850   -4.7820 hn        1 MOL      0.271380
     41 N4          5.3580    1.5330    0.5750 n         1 MOL     -0.338692
     42 C13         3.9610    1.6980    1.0400 c3        1 MOL     -0.128611
     43 C14         3.8210    1.3980    2.5440 c         1 MOL      0.561119
     44 O6          4.3140    0.3490    3.1500 o         1 MOL     -0.507671
     45 C15         3.1410    0.9030    0.0440 c3        1 MOL     -0.272772
     46 C16         1.6710    1.1710    0.4020 c         1 MOL      0.730098
     47 O7          0.9370    1.8690   -0.3720 o         1 MOL     -0.751351
     48 O8          1.1220    0.6680    1.4130 o         1 MOL     -0.751351
     49 H21         5.5700    0.7000    0.0490 hn        1 MOL      0.258739
     50 H22         3.6620    2.7250    0.8240 h1        1 MOL      0.102677
     51 H23         3.2930   -0.1770    0.0330 hc        1 MOL      0.153180
     52 H24         3.3470    1.2230   -0.9800 hc        1 MOL      0.153180
     53 N5          3.1100    2.3230    3.1260 n         1 MOL     -0.298561
     54 C17         2.7740    2.3740    4.5950 c3        1 MOL     -0.073032
     55 C18         2.0660    1.1720    5.2060 c         1 MOL      0.494604
     56 O9          2.3440    0.9260    6.3740 o         1 MOL     -0.535234
     57 H25         2.8880    3.1290    2.5520 hn        1 MOL      0.257671
     58 H26         2.1050    3.2270    4.7190 h1        1 MOL      0.067023
     59 H27         3.6530    2.5630    5.1940 h1        1 MOL      0.067023
     60 N6          1.2390    0.3780    4.5080 n         1 MOL     -0.315129
     61 C19         0.3850   -0.7590    5.0510 c3        1 MOL     -0.102881
     62 C20         0.5330   -2.0370    4.2730 c         1 MOL      0.576131
     63 O10        -0.1520   -3.0370    4.5250 o         1 MOL     -0.557425
     64 C21        -1.0390   -0.2760    5.3790 c3        1 MOL     -0.240061
     65 C22        -1.8550   -0.4540    4.0810 c         1 MOL      0.491212
     66 N7         -2.8040   -1.3750    4.0510 n         1 MOL     -0.743583
     67 O11        -1.7010    0.2210    3.0730 o         1 MOL     -0.434974
     68 H28         1.1880    0.5920    3.5220 hn        1 MOL      0.378176
     69 H29         0.7980   -1.0980    6.0050 h1        1 MOL      0.153904
     70 H30        -1.1250    0.7810    5.6250 hc        1 MOL      0.105079
     71 H31        -1.5870   -0.8470    6.1300 hc        1 MOL      0.105079
     72 H32        -2.8890   -1.9950    4.8400 hn        1 MOL      0.379818
     73 H33        -3.3160   -1.4620    3.1800 hn        1 MOL      0.379818
     74 N8          1.4380   -2.0450    3.2940 n         1 MOL     -0.418046
     75 C23         1.8620   -3.2880    2.5740 c3        1 MOL     -0.018848
     76 C24         1.1790   -3.4080    1.2070 c         1 MOL      0.406785
     77 O12         1.1030   -4.5440    0.8120 o         1 MOL     -0.538724
     78 H34         1.8270   -1.1520    3.0310 hn        1 MOL      0.193437
     79 H35         1.7250   -4.1690    3.2000 h1        1 MOL      0.115106
     80 H36         2.9240   -3.2620    2.3580 h1        1 MOL      0.115106
     81 N9          0.7860   -2.3370    0.5060 n         1 MOL     -0.018025
     82 C25         0.0570   -2.4290   -0.7090 c3        1 MOL      0.157613
     83 C26        -1.2370   -1.6270   -0.5300 c         1 MOL      0.362052
     84 O13        -1.2930   -0.5760    0.0310 o         1 MOL     -0.457342
     85 C27         0.8760   -1.9670   -1.9840 c3        1 MOL      0.146996
     86 C28         2.0420   -2.8670   -2.3790 ca        1 MOL     -0.153161
     87 C29         2.0920   -3.6360   -3.5770 ca        1 MOL     -0.102667
     88 C30         3.1620   -2.8870   -1.5440 ca        1 MOL     -0.102667
     89 C31         3.2380   -4.3410   -3.9410 ca        1 MOL     -0.248283
     90 C32         4.2890   -3.7250   -1.8720 ca        1 MOL     -0.248283
     91 C33         4.3590   -4.4090   -3.0540 ca        1 MOL      0.427034
     92 O14         5.4370   -5.1900   -3.3980 oh        1 MOL     -0.580613
     93 H37         0.8570   -1.4440    0.9830 hn        1 MOL      0.022992
     94 H38        -0.2450   -3.4650   -0.8610 h1        1 MOL     -0.001390
     95 H39         1.2730   -0.9850   -1.7480 hc        1 MOL     -0.024115
     96 H40         0.2300   -1.8660   -2.8470 hc        1 MOL     -0.024115
     97 H41         1.2760   -3.6010   -4.2780 ha        1 MOL      0.086612
     98 H42         3.2270   -2.2730   -0.6530 ha        1 MOL      0.086612
     99 H43         3.1830   -4.8650   -4.8750 ha        1 MOL      0.127321
    100 H44         5.0810   -3.7210   -1.1310 ha        1 MOL      0.127321
    101 H45         6.1740   -5.0120   -2.8110 ho        1 MOL      0.410940
    102 N10        -2.2770   -2.2240   -1.0890 n         1 MOL     -0.606966
    103 C34        -3.6150   -1.5580   -1.3440 c3        1 MOL      0.309530
    104 C35        -4.7220   -2.0260   -0.4390 c         1 MOL      0.530986
    105 O15        -5.2130   -1.1340    0.1920 o         1 MOL     -0.441673
    106 C36        -3.8870   -1.6600   -2.8510 c3        1 MOL     -0.071810
    107 C37        -2.7880   -1.1200   -3.7510 c3        1 MOL      0.122463
    108 C38        -5.2100   -0.9940   -3.3630 c3        1 MOL     -0.534483
    109 C39        -2.2790    0.2660   -3.4180 c3        1 MOL     -0.089572
    110 H46        -2.1120   -3.1440   -1.4670 hn        1 MOL      0.328488
    111 H47        -3.4710   -0.5140   -1.0660 h1        1 MOL     -0.017330
    112 H48        -4.0270   -2.7320   -2.9610 hc        1 MOL     -0.013656
    113 H49        -2.9670   -1.2200   -4.8240 hc        1 MOL     -0.008922
    114 H50        -1.9390   -1.7460   -3.5030 hc        1 MOL     -0.008922
    115 H51        -5.0680    0.0580   -3.1240 hc        1 MOL      0.153082
    116 H52        -5.3030   -1.0980   -4.4430 hc        1 MOL      0.153082
    117 H53        -6.1300   -1.3670   -2.9220 hc        1 MOL      0.153082
    118 H54        -1.4700    0.4180   -4.1320 hc        1 MOL      0.045361
    119 H55        -3.0650    1.0190   -3.2860 hc        1 MOL      0.045361
    120 H56        -1.8680    0.2350   -2.4110 hc        1 MOL      0.045361
    121 N11        -5.0690   -3.2810   -0.2650 n         1 MOL     -0.465541
    122 C40        -6.0190   -3.7000    0.7520 c3        1 MOL      0.012699
    123 C41        -7.4340   -3.2260    0.5450 c         1 MOL      0.698264
    124 O16        -8.2410   -3.1050    1.4480 o         1 MOL     -0.568071
    125 C42        -6.0960   -5.2210    0.9330 c3        1 MOL      0.187605
    126 O17        -6.6540   -5.8520   -0.1710 oh        1 MOL     -0.621303
    127 H57        -4.5570   -3.9860   -0.7760 hn        1 MOL      0.298895
    128 H58        -5.8090   -3.2720    1.7270 h1        1 MOL      0.051753
    129 H59        -6.7440   -5.2690    1.8110 h1        1 MOL      0.021823
    130 H60        -5.1070   -5.6020    1.2220 h1        1 MOL      0.021823
    131 H61        -6.3960   -6.7790   -0.1360 ho        1 MOL      0.426456
    132 N12        -7.8090   -2.8920   -0.6690 n         1 MOL     -0.430794
    133 C43        -8.9650   -2.1070   -1.1580 c3        1 MOL      0.182684
    134 C44        -9.0860   -0.6300   -0.5460 c         1 MOL      0.362436
    135 O18       -10.0690    0.0740   -0.7470 o         1 MOL     -0.508810
    136 C45       -10.2860   -2.8830   -1.0490 c3        1 MOL     -0.401576
    137 H62        -7.2740   -3.3200   -1.4120 hn        1 MOL      0.247566
    138 H63        -8.7600   -1.8640   -2.1980 h1        1 MOL      0.075178
    139 H64       -11.0870   -2.2000   -1.3400 hc        1 MOL      0.119122
    140 H65       -10.3130   -3.6990   -1.7590 hc        1 MOL      0.119122
    141 H66       -10.3930   -3.3450   -0.0620 hc        1 MOL      0.119122
    142 N13        -8.0780   -0.1420    0.1370 n         1 MOL     -0.076071
    143 C46        -7.7740    1.2770    0.4300 c3        1 MOL      0.079564
    144 C47        -7.0310    1.9960   -0.6520 c         1 MOL      0.364099
    145 O19        -6.6200    1.4650   -1.6840 o         1 MOL     -0.419230
    146 C48        -7.1110    1.2980    1.8810 c3        1 MOL     -0.213938
    147 H67        -7.2310   -0.7020    0.2150 hn        1 MOL     -0.042998
    148 H68        -8.7560    1.7320    0.5760 h1        1 MOL      0.053883
    149 H69        -7.5580    0.5080    2.4870 hc        1 MOL      0.075536
    150 H70        -6.0420    1.0890    1.8820 hc        1 MOL      0.075536
    151 H71        -7.2730    2.2140    2.4520 hc        1 MOL      0.075536
    152 N14        -6.8900    3.3480   -0.4940 n         1 MOL     -0.461810
    153 C49        -6.2290    4.3690   -1.2930 c3        1 MOL     -0.358559
    154 C50        -6.6420    4.5450   -2.7420 c         1 MOL      0.586712
    155 O20        -5.9380    5.1440   -3.5910 o         1 MOL     -0.520909
    156 C51        -4.7120    4.0300   -1.1680 c3        1 MOL      0.135904
    157 C52        -3.7110    5.1470   -1.5210 c3        1 MOL     -0.597256
    158 C53        -2.2150    4.6900   -1.3570 c         1 MOL      0.611136
    159 O21        -2.0100    3.5640   -0.8280 o         1 MOL     -0.634676
    160 O22        -1.2550    5.3470   -1.8230 o         1 MOL     -0.634676
    161 H72        -7.3470    3.7400    0.3170 hn        1 MOL      0.306522
    162 H73        -6.4050    5.2820   -0.7220 h1        1 MOL      0.174518
    163 H74        -4.4910    3.1490   -1.7660 hc        1 MOL      0.063277
    164 H75        -4.4410    3.5370   -0.2360 hc        1 MOL      0.063277
    165 H76        -3.9510    6.0180   -0.9130 hc        1 MOL      0.195183
    166 H77        -3.8680    5.3810   -2.5770 hc        1 MOL      0.195183
    167 N15        -7.7760    3.9950   -3.0910 n         1 MOL     -0.414277
    168 C54        -8.2440    3.7220   -4.4650 c3        1 MOL      0.084745
    169 H78        -9.2900    3.4160   -4.4370 h1        1 MOL      0.035925
    170 H79        -8.1460    4.6250   -5.0690 h1        1 MOL      0.035925
    171 H80        -7.6430    2.9250   -4.9020 h1        1 MOL      0.035925
    172 H81        -8.1690    3.3140   -2.4660 hn        1 MOL      0.323560
    173 Ca1        -1.1060    2.0320    1.0970 Ca        1 MOL      1.673537
    174 O23        -3.8350    1.3030    0.9300 oh        1 MOL     -0.843329
    175 H82        -4.1820    1.9100    0.2830 ho        1 MOL      0.403627
    176 H83        -4.3810    0.5130    0.8470 ho        1 MOL      0.403627
    177 O24        -2.8720    3.4820    2.4800 oh        1 MOL     -0.843329
    178 H84        -2.3340    4.1650    2.8890 ho        1 MOL      0.403627
    179 H85        -3.7200    3.8930    2.3510 ho        1 MOL      0.403627
    180 O25         0.0220    4.5200    0.9470 oh        1 MOL     -0.843329
    181 H86        -0.4510    4.6800    0.1240 ho        1 MOL      0.403627
    182 H87         0.1600    5.3980    1.3140 ho        1 MOL      0.403627
    183 O26        -0.1160    3.1980    3.4170 oh        1 MOL     -0.843329
    184 H88         0.5290    3.8960    3.2990 ho        1 MOL      0.403627
    185 H89        -0.3180    3.2030    4.3540 ho        1 MOL      0.403627
@<TRIPOS>BOND
     1    1    2 1   
     2    1    4 1   
     3    1    5 1   
     4    1    6 1   
     5    2    3 2   
     6    2    7 1   
     7    7    8 1   
     8    7   15 1   
     9    8    9 1   
    10    8   11 1   
    11    8   16 1   
    12    9   10 2   
    13    9   19 1   
    14   11   12 1   
    15   11   17 1   
    16   11   18 1   
    17   12   13 1   
    18   12   14 1   
    19   19   20 1   
    20   19   28 1   
    21   20   21 1   
    22   20   23 1   
    23   20   29 1   
    24   21   22 2   
    25   21   41 1   
    26   23   24 1   
    27   23   30 1   
    28   23   31 1   
    29   24   25 1   
    30   24   32 1   
    31   24   33 1   
    32   25   26 1   
    33   25   34 1   
    34   25   35 1   
    35   26   27 1   
    36   26   36 1   
    37   26   37 1   
    38   27   38 1   
    39   27   39 1   
    40   27   40 1   
    41   41   42 1   
    42   41   49 1   
    43   42   43 1   
    44   42   45 1   
    45   42   50 1   
    46   43   44 2   
    47   43   53 1   
    48   45   46 1   
    49   45   51 1   
    50   45   52 1   
    51   46   47 1   
    52   46   48 1   
    53   53   54 1   
    54   53   57 1   
    55   54   55 1   
    56   54   58 1   
    57   54   59 1   
    58   55   56 2   
    59   55   60 1   
    60   60   61 1   
    61   60   68 1   
    62   61   62 1   
    63   61   64 1   
    64   61   69 1   
    65   62   63 2   
    66   62   74 1   
    67   64   65 1   
    68   64   70 1   
    69   64   71 1   
    70   65   66 1   
    71   65   67 2   
    72   66   72 1   
    73   66   73 1   
    74   74   75 1   
    75   74   78 1   
    76   75   76 1   
    77   75   79 1   
    78   75   80 1   
    79   76   77 2   
    80   76   81 1   
    81   81   82 1   
    82   81   93 1   
    83   82   83 1   
    84   82   85 1   
    85   82   94 1   
    86   83   84 2   
    87   83  102 1   
    88   85   86 1   
    89   85   95 1   
    90   85   96 1   
    91   86   87 ar  
    92   86   88 ar  
    93   87   89 ar  
    94   87   97 1   
    95   88   90 ar  
    96   88   98 1   
    97   89   91 ar  
    98   89   99 1   
    99   90   91 ar  
   100   90  100 1   
   101   91   92 1   
   102   92  101 1   
   103  102  103 1   
   104  102  110 1   
   105  103  104 1   
   106  103  106 1   
   107  103  111 1   
   108  104  105 2   
   109  104  121 1   
   110  106  107 1   
   111  106  108 1   
   112  106  112 1   
   113  107  109 1   
   114  107  113 1   
   115  107  114 1   
   116  108  115 1   
   117  108  116 1   
   118  108  117 1   
   119  109  118 1   
   120  109  119 1   
   121  109  120 1   
   122  121  122 1   
   123  121  127 1   
   124  122  123 1   
   125  122  125 1   
   126  122  128 1   
   127  123  124 2   
   128  123  132 1   
   129  125  126 1   
   130  125  129 1   
   131  125  130 1   
   132  126  131 1   
   133  132  133 1   
   134  132  137 1   
   135  133  134 1   
   136  133  136 1   
   137  133  138 1   
   138  134  135 2   
   139  134  142 1   
   140  136  139 1   
   141  136  140 1   
   142  136  141 1   
   143  142  143 1   
   144  142  147 1   
   145  143  144 1   
   146  143  146 1   
   147  143  148 1   
   148  144  145 2   
   149  144  152 1   
   150  146  149 1   
   151  146  150 1   
   152  146  151 1   
   153  152  153 1   
   154  152  161 1   
   155  153  154 1   
   156  153  156 1   
   157  153  162 1   
   158  154  155 2   
   159  154  167 1   
   160  156  157 1   
   161  156  163 1   
   162  156  164 1   
   163  157  158 1   
   164  157  165 1   
   165  157  166 1   
   166  158  159 1   
   167  158  160 1   
   168  167  168 1   
   169  167  172 1   
   170  168  169 1   
   171  168  170 1   
   172  168  171 1   
   173  174  175 1   
   174  174  176 1   
   175  177  178 1   
   176  177  179 1   
   177  180  181 1   
   178  180  182 1   
   179  183  184 1   
   180  183  185 1   
@<TRIPOS>SUBSTRUCTURE
     1 MOL         1 TEMP              0 ****  ****    0 ROOT
