@<TRIPOS>MOLECULE
MOL
  192   187     1     0     0
SMALL
resp


@<TRIPOS>ATOM
      1 C1          4.0610    4.6990   -3.4450 c3        1 MOL     -0.257599
      2 C2          4.8900    3.8560   -2.4220 c         1 MOL      0.838822
      3 O1          4.3160    3.3830   -1.4190 o         1 MOL     -0.706354
      4 H1          4.6060    5.6090   -3.6900 hc        1 MOL      0.065959
      5 H2          3.9010    4.1160   -4.3520 hc        1 MOL      0.065959
      6 H3          3.0980    4.9600   -3.0050 hc        1 MOL      0.065959
      7 N1          6.1620    3.5620   -2.7080 n         1 MOL     -0.695396
      8 C3          6.9520    2.4860   -2.1250 c3        1 MOL      0.476033
      9 C4          6.0890    1.1390   -1.9780 c         1 MOL      0.258705
     10 O2          5.6970    0.8260   -0.8810 o         1 MOL     -0.478358
     11 C5          7.8170    2.8530   -0.9120 c3        1 MOL     -0.102410
     12 C6          7.2430    3.6680    0.2290 c         1 MOL      0.672667
     13 O3          6.4010    3.2890    1.0700 o         1 MOL     -0.713880
     14 O4          7.5700    4.8490    0.1070 o         1 MOL     -0.713880
     15 H4          6.6500    3.9920   -3.4840 hn        1 MOL      0.308030
     16 H5          7.6400    2.0770   -2.8570 h1        1 MOL     -0.064724
     17 H6          8.6800    3.3740   -1.3130 hc        1 MOL     -0.003787
     18 H7          8.0320    1.8640   -0.5120 hc        1 MOL     -0.003787
     19 N2          5.7770    0.4070   -3.0580 n         1 MOL     -0.449071
     20 C7          5.0270   -0.9360   -3.0620 c3        1 MOL      0.084451
     21 C8          5.7410   -2.0210   -2.3290 c         1 MOL      0.307770
     22 O5          5.8900   -3.0960   -2.9120 o         1 MOL     -0.579702
     23 C9          3.5230   -0.8580   -2.7110 c3        1 MOL      0.285159
     24 C10         2.6140   -2.0170   -3.2510 c3        1 MOL     -0.320056
     25 C11         2.9220    0.4640   -3.0830 c3        1 MOL     -0.097891
     26 C12         2.4880   -2.1430   -4.7510 c3        1 MOL     -0.229376
     27 H8          6.0450    0.8300   -3.9290 hn        1 MOL      0.276354
     28 H9          5.1590   -1.1840   -4.1190 h1        1 MOL      0.081616
     29 H10         3.4050   -0.9640   -1.6300 hc        1 MOL     -0.201722
     30 H11         1.5830   -1.9300   -2.9230 hc        1 MOL      0.178961
     31 H12         3.0440   -2.9730   -2.9480 hc        1 MOL      0.178961
     32 H13         1.8460    0.3520   -3.1800 hc        1 MOL      0.011540
     33 H14         3.1640    1.2580   -2.3800 hc        1 MOL      0.011540
     34 H15         3.3310    0.7420   -4.0500 hc        1 MOL      0.011540
     35 H16         3.4260   -2.2150   -5.3080 hc        1 MOL      0.052803
     36 H17         1.8040   -2.9500   -5.0140 hc        1 MOL      0.052803
     37 H18         1.9670   -1.2570   -5.0960 hc        1 MOL      0.052803
     38 N3          6.1260   -1.9450   -1.1030 n         1 MOL      0.009234
     39 C13         7.1180   -2.7500   -0.4010 c3        1 MOL      0.011642
     40 C14         6.5850   -4.1790   -0.1080 c         1 MOL      0.764587
     41 O6          7.3130   -5.1330   -0.4480 o         1 MOL     -0.595871
     42 C15         7.3480   -2.0600    0.9630 c3        1 MOL     -0.167951
     43 C16         8.5130   -2.5780    1.8150 c         1 MOL      0.614559
     44 O7          9.2180   -3.5750    1.4710 o         1 MOL     -0.686900
     45 O8          8.5500   -2.1870    2.9720 o         1 MOL     -0.686900
     46 H19         5.8270   -1.0750   -0.6860 hn        1 MOL      0.213024
     47 H20         8.0420   -2.8600   -0.9630 h1        1 MOL      0.015616
     48 H21         6.4240   -2.2020    1.5140 hc        1 MOL      0.009159
     49 H22         7.4320   -0.9790    0.8280 hc        1 MOL      0.009159
     50 N4          5.2530   -4.4360    0.2360 n         1 MOL     -0.731593
     51 C17         4.1590   -3.4740    0.4730 c3        1 MOL      0.622178
     52 C18         3.0570   -4.1340    1.2680 c         1 MOL      0.409927
     53 O9          2.8090   -5.3390    1.1890 o         1 MOL     -0.559180
     54 H23         4.9760   -5.3900    0.4070 hn        1 MOL      0.313658
     55 H24         3.7270   -3.1370   -0.4680 h1        1 MOL     -0.155531
     56 H25         4.5480   -2.6480    1.0750 h1        1 MOL     -0.155531
     57 N5          2.3140   -3.4010    2.1240 n         1 MOL     -0.207407
     58 C19         2.4640   -2.0070    2.4610 c3        1 MOL     -0.020392
     59 C20         2.5860   -1.0740    1.2020 c         1 MOL      0.262345
     60 O10         3.5580   -0.3980    0.9510 o         1 MOL     -0.564887
     61 C21         3.6120   -1.9280    3.5030 c3        1 MOL     -0.659386
     62 C22         3.3500   -2.6780    4.8370 c         1 MOL      0.830645
     63 O11         3.9340   -3.7710    5.1230 o         1 MOL     -0.743067
     64 O12         2.5650   -2.1890    5.6300 o         1 MOL     -0.743067
     65 H26         1.6060   -3.9480    2.5870 hn        1 MOL      0.245853
     66 H27         1.5610   -1.7080    3.0050 h1        1 MOL      0.103765
     67 H28         3.8160   -0.8910    3.7700 hc        1 MOL      0.202644
     68 H29         4.5730   -2.2680    3.1460 hc        1 MOL      0.202644
     69 N6          1.5290   -1.1440    0.3870 n         1 MOL     -0.037925
     70 C23         0.1400   -1.6570    0.6830 c3        1 MOL     -0.203034
     71 C24        -0.2680   -2.9140    0.0230 c         1 MOL      0.388020
     72 O13         0.5180   -3.6270   -0.7050 o         1 MOL     -0.519718
     73 H30         1.5290   -0.5140   -0.4050 hn        1 MOL      0.265628
     74 H31        -0.6180   -0.9070    0.4630 h1        1 MOL      0.110765
     75 H32        -0.0560   -1.7920    1.7510 h1        1 MOL      0.110765
     76 N7         -1.5250   -3.2490    0.1700 n         1 MOL     -0.160081
     77 C25        -2.2150   -4.5190   -0.2100 c3        1 MOL     -0.182664
     78 C26        -3.2790   -4.3560   -1.4250 c         1 MOL      0.544723
     79 O14        -3.6520   -5.3000   -2.0750 o         1 MOL     -0.548292
     80 C27        -2.7930   -5.1440    1.0270 c3        1 MOL     -0.021137
     81 C28        -3.5790   -4.2410    1.9300 c3        1 MOL     -0.354246
     82 C29        -4.9200   -3.8740    1.3070 c         1 MOL      0.614780
     83 N8         -5.7730   -4.8360    1.3360 n         1 MOL     -0.767794
     84 O15        -5.1520   -2.8350    0.7360 o         1 MOL     -0.503423
     85 H33        -2.0620   -2.5410    0.6560 hn        1 MOL      0.205002
     86 H34        -1.3930   -5.1810   -0.5030 h1        1 MOL      0.166930
     87 H35        -1.9920   -5.6160    1.5930 hc        1 MOL      0.058747
     88 H36        -3.4060   -6.0270    0.8470 hc        1 MOL      0.058747
     89 H37        -3.0660   -3.3270    2.2210 hc        1 MOL      0.120912
     90 H38        -3.7510   -4.7480    2.8700 hc        1 MOL      0.120912
     91 H39        -5.5550   -5.7480    1.7290 hn        1 MOL      0.360207
     92 H40        -6.5450   -4.7390    0.6930 hn        1 MOL      0.360207
     93 N9         -3.5840   -3.1560   -1.7760 n         1 MOL     -0.261337
     94 C30        -4.0980   -2.6990   -3.1180 c3        1 MOL     -0.206239
     95 C31        -5.4800   -1.9820   -3.0460 c         1 MOL      0.432514
     96 O16        -5.9370   -1.5900   -4.0810 o         1 MOL     -0.540686
     97 C32        -3.0200   -1.8050   -3.9080 c3        1 MOL      0.153028
     98 C33        -1.5880   -2.3630   -3.8120 c3        1 MOL     -0.179605
     99 C34        -2.9400   -0.3630   -3.3810 c3        1 MOL     -0.179605
    100 H41        -3.3150   -2.4190   -1.1400 hn        1 MOL      0.151553
    101 H42        -4.2930   -3.5860   -3.7230 h1        1 MOL      0.155331
    102 H43        -3.2900   -1.7370   -4.9660 hc        1 MOL      0.016700
    103 H44        -0.9560   -1.9240   -4.5830 hc        1 MOL      0.048389
    104 H45        -1.2260   -2.2900   -2.7870 hc        1 MOL      0.048389
    105 H46        -1.5560   -3.4380   -3.9450 hc        1 MOL      0.048389
    106 H47        -2.3560   -0.4160   -2.4560 hc        1 MOL      0.048389
    107 H48        -2.3200    0.2580   -4.0350 hc        1 MOL      0.048389
    108 H49        -3.9490   -0.0160   -3.1680 hc        1 MOL      0.048389
    109 N10        -6.0500   -1.6280   -1.8700 n         1 MOL     -0.023501
    110 C35        -7.4370   -1.2030   -1.7070 c3        1 MOL      0.088813
    111 C36        -7.4820    0.2360   -1.1960 c         1 MOL      0.357325
    112 O17        -8.6100    0.7990   -1.1540 o         1 MOL     -0.540700
    113 C37        -8.1290   -2.2200   -0.7810 c3        1 MOL     -0.326400
    114 C38        -8.1330   -3.5780   -1.3490 c         1 MOL      0.643604
    115 N11        -8.8990   -3.8270   -2.3590 n         1 MOL     -0.769586
    116 O18        -7.4160   -4.4570   -0.9270 o         1 MOL     -0.524852
    117 H50        -5.5940   -2.0020   -1.0430 hn        1 MOL      0.202437
    118 H51        -7.9610   -1.2830   -2.6610 h1        1 MOL      0.031716
    119 H52        -9.1390   -1.8370   -0.6120 hc        1 MOL      0.087153
    120 H53        -7.5810   -2.1230    0.1570 hc        1 MOL      0.087153
    121 H54        -9.4430   -3.0450   -2.6980 hn        1 MOL      0.368278
    122 H55        -8.9880   -4.7070   -2.8490 hn        1 MOL      0.368278
    123 N12        -6.4350    0.9250   -0.7490 n         1 MOL     -0.212412
    124 C39        -6.3800    2.2230   -0.0770 c3        1 MOL      0.178319
    125 C40        -4.8540    2.7180    0.1470 c         1 MOL      0.216053
    126 O19        -3.8490    2.0080   -0.0410 o         1 MOL     -0.333905
    127 C41        -7.0990    2.0190    1.3020 c3        1 MOL     -0.254123
    128 C42        -6.5570    0.8830    2.1280 ca        1 MOL      0.248212
    129 C43        -7.4500   -0.1770    2.2840 ca        1 MOL     -0.355749
    130 C44        -5.2330    0.8010    2.6120 ca        1 MOL     -0.355749
    131 C45        -6.9950   -1.3200    2.9420 ca        1 MOL     -0.015491
    132 C46        -4.7660   -0.3250    3.2640 ca        1 MOL     -0.015491
    133 C47        -5.6820   -1.4610    3.4680 ca        1 MOL      0.050181
    134 O20        -5.3080   -2.6380    4.1840 oh        1 MOL     -0.393526
    135 H56        -5.5460    0.4530   -0.8850 hn        1 MOL      0.101485
    136 H57        -6.8570    3.0230   -0.6440 h1        1 MOL      0.027225
    137 H58        -8.1730    2.0420    1.1430 hc        1 MOL      0.092393
    138 H59        -6.9480    2.9400    1.8550 hc        1 MOL      0.092393
    139 H60        -8.4630   -0.2740    1.9020 ha        1 MOL      0.171641
    140 H61        -4.5370    1.6270    2.5400 ha        1 MOL      0.171641
    141 H62        -7.7220   -2.0960    3.1310 ha        1 MOL      0.110156
    142 H63        -3.7650   -0.3040    3.6850 ha        1 MOL      0.110156
    143 H64        -6.1140   -3.1600    4.2610 ho        1 MOL      0.297897
    144 N13        -4.7090    3.9700    0.5960 n         1 MOL     -0.208017
    145 C48        -3.6120    4.7280    1.1570 c3        1 MOL     -0.117763
    146 C49        -2.3380    4.8350    0.2760 c         1 MOL      0.320998
    147 O21        -1.7820    5.8950    0.1940 o         1 MOL     -0.477095
    148 C50        -3.3440    4.1870    2.5700 c3        1 MOL      0.260246
    149 C51        -4.4320    4.5270    3.5850 c3        1 MOL     -0.387118
    150 C52        -4.7030    6.0130    3.8310 c         1 MOL      0.756127
    151 O22        -3.9810    6.8280    3.2330 o         1 MOL     -0.735768
    152 O23        -5.6760    6.4930    4.4800 o         1 MOL     -0.735768
    153 H65        -5.5410    4.5350    0.4850 hn        1 MOL      0.237134
    154 H66        -3.9660    5.7600    1.2500 h1        1 MOL      0.138623
    155 H67        -2.5420    4.8500    2.9160 hc        1 MOL      0.013865
    156 H68        -2.9640    3.1670    2.6290 hc        1 MOL      0.013865
    157 H69        -4.0470    4.0430    4.4910 hc        1 MOL      0.044879
    158 H70        -5.3590    4.0530    3.2680 hc        1 MOL      0.044879
    159 N14        -1.9630    3.8200   -0.5320 n         1 MOL     -0.048076
    160 C53        -0.9080    3.9730   -1.5710 c3        1 MOL     -0.055072
    161 C54        -1.3670    4.8020   -2.8140 c         1 MOL      0.439324
    162 O24        -0.5260    5.4620   -3.4260 o         1 MOL     -0.516006
    163 C55        -0.3800    2.5890   -1.9300 c3        1 MOL      0.146129
    164 C56        -0.3800    1.5190   -0.8350 c3        1 MOL     -0.126986
    165 C57         0.5640    1.8550    0.2850 c         1 MOL      0.855450
    166 O25         0.0800    2.2090    1.3870 o         1 MOL     -0.765712
    167 O26         1.7460    1.6880    0.0250 o         1 MOL     -0.765712
    168 H71        -2.5530    3.0090   -0.6300 hn        1 MOL      0.087465
    169 H72        -0.0950    4.4910   -1.0720 h1        1 MOL      0.112085
    170 H73         0.5740    2.7670   -2.4340 hc        1 MOL     -0.034939
    171 H74        -1.0990    2.1680   -2.6230 hc        1 MOL     -0.034939
    172 H75        -0.1050    0.5970   -1.3460 hc        1 MOL     -0.036096
    173 H76        -1.3490    1.3250   -0.3600 hc        1 MOL     -0.036096
    174 N15        -2.7110    4.9220   -2.9510 n         1 MOL     -0.283301
    175 C58        -3.4250    5.9320   -3.7940 c3        1 MOL     -0.196215
    176 H77        -2.6950    6.5620   -4.3010 h1        1 MOL      0.096462
    177 H78        -4.0380    5.4190   -4.5350 h1        1 MOL      0.096462
    178 H79        -4.0610    6.5500   -3.1610 h1        1 MOL      0.096462
    179 H80        -3.3230    4.4760   -2.2880 hn        1 MOL      0.191641
    180 Ca1         4.1110    2.2010    0.9600 Ca        1 MOL      1.817694
    181 O27         4.7540    3.2750    3.4220 oh        1 MOL     -0.825945
    182 H81         5.4170    3.9400    3.2450 ho        1 MOL      0.401277
    183 H82         4.8050    3.1330    4.3650 ho        1 MOL      0.401277
    184 O28         3.4850    5.0360    0.9950 oh        1 MOL     -0.825945
    185 H83         3.1000    5.6680    1.5930 ho        1 MOL      0.401277
    186 H84         4.0680    5.5460    0.4290 ho        1 MOL      0.401277
    187 O29         2.1410    1.8500    2.9100 oh        1 MOL     -0.825945
    188 H85         1.2570    2.0040    2.5820 ho        1 MOL      0.401277
    189 H86         2.0150    1.3260    3.7070 ho        1 MOL      0.401277
    190 O30         5.7560    0.6780    2.2940 oh        1 MOL     -0.825945
    191 H87         6.1090    0.3920    3.1420 ho        1 MOL      0.401277
    192 H88         5.8340   -0.0950    1.7370 ho        1 MOL      0.401277
@<TRIPOS>BOND
     1    1    2 1   
     2    1    4 1   
     3    1    5 1   
     4    1    6 1   
     5    2    3 2   
     6    2    7 1   
     7    7    8 1   
     8    7   15 1   
     9    8    9 1   
    10    8   11 1   
    11    8   16 1   
    12    9   10 2   
    13    9   19 1   
    14   11   12 1   
    15   11   17 1   
    16   11   18 1   
    17   12   13 1   
    18   12   14 1   
    19   19   20 1   
    20   19   27 1   
    21   20   21 1   
    22   20   23 1   
    23   20   28 1   
    24   21   22 2   
    25   21   38 1   
    26   23   24 1   
    27   23   25 1   
    28   23   29 1   
    29   24   26 1   
    30   24   30 1   
    31   24   31 1   
    32   25   32 1   
    33   25   33 1   
    34   25   34 1   
    35   26   35 1   
    36   26   36 1   
    37   26   37 1   
    38   38   39 1   
    39   38   46 1   
    40   39   40 1   
    41   39   42 1   
    42   39   47 1   
    43   40   41 2   
    44   40   50 1   
    45   42   43 1   
    46   42   48 1   
    47   42   49 1   
    48   43   44 1   
    49   43   45 1   
    50   50   51 1   
    51   50   54 1   
    52   51   52 1   
    53   51   55 1   
    54   51   56 1   
    55   52   53 2   
    56   52   57 1   
    57   57   58 1   
    58   57   65 1   
    59   58   59 1   
    60   58   61 1   
    61   58   66 1   
    62   59   60 2   
    63   59   69 1   
    64   61   62 1   
    65   61   67 1   
    66   61   68 1   
    67   62   63 1   
    68   62   64 1   
    69   69   70 1   
    70   69   73 1   
    71   70   71 1   
    72   70   74 1   
    73   70   75 1   
    74   71   72 2   
    75   71   76 1   
    76   76   77 1   
    77   76   85 1   
    78   77   78 1   
    79   77   80 1   
    80   77   86 1   
    81   78   79 2   
    82   78   93 1   
    83   80   81 1   
    84   80   87 1   
    85   80   88 1   
    86   81   82 1   
    87   81   89 1   
    88   81   90 1   
    89   82   83 1   
    90   82   84 2   
    91   83   91 1   
    92   83   92 1   
    93   93   94 1   
    94   93  100 1   
    95   94   95 1   
    96   94   97 1   
    97   94  101 1   
    98   95   96 2   
    99   95  109 1   
   100   97   98 1   
   101   97   99 1   
   102   97  102 1   
   103   98  103 1   
   104   98  104 1   
   105   98  105 1   
   106   99  106 1   
   107   99  107 1   
   108   99  108 1   
   109  109  110 1   
   110  109  117 1   
   111  110  111 1   
   112  110  113 1   
   113  110  118 1   
   114  111  112 2   
   115  111  123 1   
   116  113  114 1   
   117  113  119 1   
   118  113  120 1   
   119  114  115 1   
   120  114  116 2   
   121  115  121 1   
   122  115  122 1   
   123  123  124 1   
   124  123  135 1   
   125  124  125 1   
   126  124  127 1   
   127  124  136 1   
   128  125  126 2   
   129  125  144 1   
   130  127  128 1   
   131  127  137 1   
   132  127  138 1   
   133  128  129 ar  
   134  128  130 ar  
   135  129  131 ar  
   136  129  139 1   
   137  130  132 ar  
   138  130  140 1   
   139  131  133 ar  
   140  131  141 1   
   141  132  133 ar  
   142  132  142 1   
   143  133  134 1   
   144  134  143 1   
   145  144  145 1   
   146  144  153 1   
   147  145  146 1   
   148  145  148 1   
   149  145  154 1   
   150  146  147 2   
   151  146  159 1   
   152  148  149 1   
   153  148  155 1   
   154  148  156 1   
   155  149  150 1   
   156  149  157 1   
   157  149  158 1   
   158  150  151 1   
   159  150  152 1   
   160  159  160 1   
   161  159  168 1   
   162  160  161 1   
   163  160  163 1   
   164  160  169 1   
   165  161  162 2   
   166  161  174 1   
   167  163  164 1   
   168  163  170 1   
   169  163  171 1   
   170  164  165 1   
   171  164  172 1   
   172  164  173 1   
   173  165  166 1   
   174  165  167 1   
   175  174  175 1   
   176  174  179 1   
   177  175  176 1   
   178  175  177 1   
   179  175  178 1   
   180  181  182 1   
   181  181  183 1   
   182  184  185 1   
   183  184  186 1   
   184  187  188 1   
   185  187  189 1   
   186  190  191 1   
   187  190  192 1   
@<TRIPOS>SUBSTRUCTURE
     1 MOL         1 TEMP              0 ****  ****    0 ROOT
