@<TRIPOS>MOLECULE
MOL
  178   175     1     0     0
SMALL
resp


@<TRIPOS>ATOM
      1 C1          2.6530   -2.4370    4.5060 c3        1 MOL     -0.242555
      2 C2          3.9590   -1.8000    4.0130 c         1 MOL      0.599057
      3 O1          4.1280   -0.5990    3.8670 o         1 MOL     -0.584768
      4 H1          2.8800   -3.3540    5.0520 hc        1 MOL      0.061241
      5 H2          2.1340   -1.7410    5.1650 hc        1 MOL      0.061241
      6 H3          2.0180   -2.6720    3.6520 hc        1 MOL      0.061241
      7 N1          4.9950   -2.6050    3.9280 n         1 MOL     -0.466013
      8 C3          6.2840   -2.2180    3.2510 c3        1 MOL      0.125920
      9 C4          6.1010   -2.1130    1.6980 c         1 MOL      0.438822
     10 O2          5.2310   -2.7320    1.0620 o         1 MOL     -0.484440
     11 C5          7.3310   -3.3350    3.5990 c3        1 MOL     -0.210217
     12 C6          6.9020   -4.7290    3.3520 c         1 MOL      0.729171
     13 O3          6.4210   -5.3280    4.3190 o         1 MOL     -0.724031
     14 O4          6.8920   -5.1810    2.2080 o         1 MOL     -0.724031
     15 H4          4.8900   -3.5990    4.0730 hn        1 MOL      0.250461
     16 H5          6.7030   -1.3280    3.7180 h1        1 MOL      0.061585
     17 H6          7.7350   -3.1460    4.5890 hc        1 MOL      0.020971
     18 H7          8.1810   -3.2630    2.9240 hc        1 MOL      0.020971
     19 N2          7.1160   -1.4650    1.1860 n         1 MOL     -0.485061
     20 C7          7.2990   -1.1330   -0.2130 c3        1 MOL      0.447985
     21 C8          6.1770   -0.2710   -0.8740 c         1 MOL      0.552871
     22 O5          5.5830    0.5030   -0.1400 o         1 MOL     -0.556964
     23 C9          8.6400   -0.4220   -0.3430 c3        1 MOL     -0.417683
     24 H8          7.7950   -1.0210    1.7900 hn        1 MOL      0.250869
     25 H9          7.3070   -2.0820   -0.7440 h1        1 MOL     -0.022594
     26 H10         9.0550   -0.5850   -1.3430 hc        1 MOL      0.100056
     27 H11         8.4530    0.6120   -0.0560 hc        1 MOL      0.100056
     28 H12         9.3860   -0.8860    0.3100 hc        1 MOL      0.100056
     29 N3          5.9170   -0.4640   -2.1780 n         1 MOL     -0.743391
     30 C10         4.9380    0.2320   -3.0170 c3        1 MOL      0.056420
     31 C11         5.3470    1.5730   -3.4610 c         1 MOL      0.849635
     32 O6          6.3540    1.6910   -4.1740 o         1 MOL     -0.600635
     33 C12         4.4170   -0.6440   -4.1930 c3        1 MOL     -0.215557
     34 C13         3.8330   -2.0160   -3.7540 c         1 MOL      0.757115
     35 O7          3.9470   -3.0240   -4.5200 o         1 MOL     -0.699461
     36 O8          3.2870   -2.0230   -2.6360 o         1 MOL     -0.699461
     37 H13         6.4960   -1.1610   -2.6310 hn        1 MOL      0.383204
     38 H14         4.0550    0.4000   -2.3990 h1        1 MOL      0.008401
     39 H15         5.2680   -0.7460   -4.8720 hc        1 MOL      0.042266
     40 H16         3.7050   -0.1550   -4.8510 hc        1 MOL      0.042266
     41 N4          4.5640    2.6630   -3.3200 n         1 MOL     -0.632857
     42 C14         4.7330    3.8920   -4.0680 c3        1 MOL      0.002371
     43 C15         4.4370    5.0820   -3.1870 c         1 MOL      0.679159
     44 O9          5.0420    6.1410   -3.2650 o         1 MOL     -0.529532
     45 H17         3.6820    2.4700   -2.8590 hn        1 MOL      0.293913
     46 H18         3.9740    3.9620   -4.8420 h1        1 MOL      0.061637
     47 H19         5.7220    4.0570   -4.4950 h1        1 MOL      0.061637
     48 N5          3.2440    5.0130   -2.4900 n         1 MOL     -0.644373
     49 C16         2.5060    6.1780   -1.9060 c3        1 MOL      0.240290
     50 C17         1.8610    5.7670   -0.5720 c         1 MOL      0.448301
     51 O10         1.8950    4.6060   -0.1500 o         1 MOL     -0.437648
     52 C18         1.4860    6.5810   -2.9520 c3        1 MOL     -0.351781
     53 C19         2.1220    6.9120   -4.3440 c         1 MOL      0.648241
     54 N6          2.1080    5.9990   -5.3160 n         1 MOL     -0.806047
     55 O11         2.7440    7.9450   -4.4480 o         1 MOL     -0.524775
     56 H20         2.7440    4.1430   -2.6250 hn        1 MOL      0.333557
     57 H21         3.1940    7.0170   -1.7570 h1        1 MOL      0.070203
     58 H22         0.8630    7.4130   -2.6510 hc        1 MOL      0.090767
     59 H23         0.7350    5.8140   -3.1420 hc        1 MOL      0.090767
     60 H24         1.4740    5.2230   -5.2110 hn        1 MOL      0.377711
     61 H25         2.6550    6.2270   -6.1240 hn        1 MOL      0.377711
     62 N7          1.2750    6.7020    0.2180 n         1 MOL     -0.444000
     63 C20         0.7300    6.4540    1.5560 c3        1 MOL     -0.104455
     64 C21        -0.7600    6.1030    1.6010 c         1 MOL      0.531646
     65 O12        -1.4020    5.8560    0.5810 o         1 MOL     -0.470407
     66 H26         1.1930    7.6130   -0.2060 hn        1 MOL      0.292557
     67 H27         0.8810    7.3860    2.0990 h1        1 MOL      0.097416
     68 H28         1.3150    5.6190    1.9340 h1        1 MOL      0.097416
     69 N8         -1.4660    6.3620    2.6690 n         1 MOL     -0.317991
     70 C22        -2.8290    6.1690    2.8400 c3        1 MOL     -0.252661
     71 C23        -3.2640    4.6540    2.9260 c         1 MOL      0.485993
     72 O13        -4.2640    4.3150    2.4200 o         1 MOL     -0.569818
     73 C24        -3.4290    6.9160    3.9840 c3        1 MOL      0.562215
     74 C25        -3.2890    6.3430    5.4480 c3        1 MOL     -0.183604
     75 O14        -2.9250    8.1720    4.1200 oh        1 MOL     -0.682102
     76 H29        -0.9340    6.6010    3.4880 hn        1 MOL      0.207228
     77 H30        -3.3920    6.5400    1.9880 h1        1 MOL      0.123866
     78 H31        -4.5100    6.9600    3.8540 h1        1 MOL     -0.018364
     79 H32        -1.9920    8.2160    3.9140 ho        1 MOL      0.383396
     80 H33        -2.2330    6.0750    5.4920 hc        1 MOL      0.026837
     81 H34        -3.4970    7.0610    6.2390 hc        1 MOL      0.026837
     82 H35        -4.0340    5.5530    5.5760 hc        1 MOL      0.026837
     83 N9         -2.5090    3.7370    3.4880 n         1 MOL     -0.073431
     84 C26        -2.7820    2.3210    3.4760 c3        1 MOL      0.053398
     85 C27        -1.9730    1.6370    2.3720 c         1 MOL      0.295968
     86 O15        -0.8910    2.0800    1.9610 o         1 MOL     -0.520171
     87 C28        -2.4680    1.6680    4.8800 c3        1 MOL      0.133691
     88 C29        -3.0230    2.4680    6.0760 c3        1 MOL     -0.171519
     89 C30        -2.8730    0.1620    4.9850 c3        1 MOL     -0.137027
     90 C31        -4.5940    2.6450    6.1110 c3        1 MOL     -0.116193
     91 H36        -1.6310    4.1380    3.7730 hn        1 MOL      0.139722
     92 H37        -3.8460    2.1560    3.3270 h1        1 MOL      0.049620
     93 H38        -1.3920    1.7620    4.9790 hc        1 MOL      0.006975
     94 H39        -2.5290    3.4370    5.9930 hc        1 MOL      0.036887
     95 H40        -2.7720    1.9290    6.9870 hc        1 MOL      0.036887
     96 H41        -2.2750   -0.3490    5.7480 hc        1 MOL      0.029081
     97 H42        -3.9320    0.0800    5.2380 hc        1 MOL      0.029081
     98 H43        -2.5770   -0.4060    4.1090 hc        1 MOL      0.029081
     99 H44        -5.0920    1.7500    6.4660 hc        1 MOL      0.036004
    100 H45        -4.8690    3.3840    6.8590 hc        1 MOL      0.036004
    101 H46        -5.0830    2.8600    5.1600 hc        1 MOL      0.036004
    102 N10        -2.5390    0.6000    1.8280 n         1 MOL     -0.166134
    103 C32        -1.7860   -0.2120    0.8350 c3        1 MOL      0.155245
    104 C33        -2.7880   -0.6320   -0.3170 c         1 MOL      0.318391
    105 O16        -2.5870   -1.6610   -1.0190 o         1 MOL     -0.366390
    106 C34        -1.1510   -1.3700    1.5960 c3        1 MOL     -0.077828
    107 C35        -0.1430   -2.1400    0.7370 c         1 MOL      0.653801
    108 O17         0.1860   -1.7430   -0.4000 o         1 MOL     -0.716753
    109 O18         0.5370   -3.0070    1.3010 o         1 MOL     -0.716753
    110 H47        -3.4850    0.3580    2.0550 hn        1 MOL      0.186082
    111 H48        -0.9840    0.3310    0.3400 h1        1 MOL      0.084418
    112 H49        -1.9040   -2.0180    2.0360 hc        1 MOL      0.024873
    113 H50        -0.4380   -1.0500    2.3510 hc        1 MOL      0.024873
    114 N11        -3.8740    0.1610   -0.4820 n         1 MOL     -0.428365
    115 C36        -4.9800   -0.1830   -1.4230 c3        1 MOL      0.246256
    116 C37        -5.5520   -1.5540   -1.1660 c         1 MOL      0.341605
    117 O19        -5.9190   -1.8430   -0.0250 o         1 MOL     -0.532110
    118 C38        -6.0200    0.9290   -1.4660 c3        1 MOL     -0.231816
    119 C39        -7.0500    0.7210   -2.5190 ca        1 MOL      0.104538
    120 C40        -8.3280    0.0510   -2.2130 ca        1 MOL     -0.207854
    121 C41        -6.8080    1.1330   -3.8800 ca        1 MOL     -0.207854
    122 C42        -9.2200   -0.1040   -3.2860 ca        1 MOL     -0.075893
    123 C43        -7.7300    0.8080   -4.9560 ca        1 MOL     -0.075893
    124 C44        -8.9540    0.2500   -4.6070 ca        1 MOL     -0.146046
    125 H51        -3.9160    0.9880    0.0880 hn        1 MOL      0.227442
    126 H52        -4.4790   -0.1990   -2.3950 h1        1 MOL      0.012591
    127 H53        -5.5170    1.8860   -1.6170 hc        1 MOL      0.094311
    128 H54        -6.4960    0.9930   -0.4900 hc        1 MOL      0.094311
    129 H55        -8.5690   -0.2110   -1.1990 ha        1 MOL      0.140945
    130 H56        -5.8770    1.5920   -4.1700 ha        1 MOL      0.140945
    131 H57       -10.1850   -0.5150   -3.0430 ha        1 MOL      0.102594
    132 H58        -7.3920    1.0310   -5.9540 ha        1 MOL      0.102594
    133 H59        -9.6640    0.0460   -5.4000 ha        1 MOL      0.103732
    134 N12        -5.6370   -2.3920   -2.2300 n         1 MOL      0.049684
    135 C45        -6.2930   -3.7230   -2.1710 c3        1 MOL     -0.013212
    136 C46        -5.4990   -4.7090   -1.3050 c         1 MOL      0.481786
    137 O20        -6.0750   -5.5510   -0.6650 o         1 MOL     -0.564292
    138 C47        -6.4420   -4.1820   -3.5960 c3        1 MOL     -0.134737
    139 C48        -5.1530   -3.7050   -4.2160 c3        1 MOL      0.071658
    140 C49        -5.1110   -2.3170   -3.5810 c3        1 MOL     -0.146771
    141 H60        -7.2650   -3.6340   -1.6710 h1        1 MOL      0.050726
    142 H61        -6.4460   -5.2770   -3.6290 hc        1 MOL      0.051088
    143 H62        -7.3160   -3.6720   -3.9820 hc        1 MOL      0.051088
    144 H63        -4.3140   -4.3560   -3.9790 hc        1 MOL      0.015724
    145 H64        -5.2730   -3.6250   -5.3000 hc        1 MOL      0.015724
    146 H65        -4.1150   -1.8790   -3.6260 h1        1 MOL      0.055309
    147 H66        -5.7280   -1.5930   -4.1030 h1        1 MOL      0.055309
    148 N13        -4.1840   -4.5400   -1.0680 n         1 MOL     -0.264019
    149 C50        -3.4410   -5.5340   -0.1610 c3        1 MOL     -0.216702
    150 C51        -3.8750   -5.5010    1.2950 c         1 MOL      0.518092
    151 O21        -3.6220   -6.4790    2.0110 o         1 MOL     -0.561298
    152 C52        -1.9740   -5.2970   -0.1680 c3        1 MOL      0.153038
    153 C53        -1.2260   -5.1240   -1.5050 c3        1 MOL     -0.046515
    154 C54         0.2530   -4.7710   -1.4090 c         1 MOL      0.579796
    155 O22         1.0880   -5.2270   -0.5760 o         1 MOL     -0.707120
    156 O23         0.6600   -3.8290   -2.1250 o         1 MOL     -0.707120
    157 H67        -3.6460   -3.8440   -1.5640 hn        1 MOL      0.215349
    158 H68        -3.5160   -6.5710   -0.4650 h1        1 MOL      0.131375
    159 H69        -1.5690   -6.2000    0.2930 hc        1 MOL     -0.002793
    160 H70        -1.7750   -4.4620    0.5010 hc        1 MOL     -0.002793
    161 H71        -1.7280   -4.3760   -2.1130 hc        1 MOL     -0.007824
    162 H72        -1.3590   -6.0670   -2.0370 hc        1 MOL     -0.007824
    163 N14        -4.4910   -4.4190    1.7690 n         1 MOL     -0.143959
    164 C55        -4.8920   -4.2790    3.1570 c3        1 MOL     -0.303122
    165 H73        -5.0960   -5.2630    3.5770 h1        1 MOL      0.108890
    166 H74        -4.0890   -3.8040    3.7210 h1        1 MOL      0.108890
    167 H75        -5.7910   -3.6650    3.2160 h1        1 MOL      0.108890
    168 H76        -4.4950   -3.6300    1.1410 hn        1 MOL      0.198004
    169 Ca1         2.4340   -3.0400   -0.4480 Ca        1 MOL      1.809968
    170 O24         3.0570   -0.4370    0.1160 oh        1 MOL     -0.876170
    171 H77         2.5410    0.3440    0.3020 ho        1 MOL      0.429198
    172 H78         3.9420   -0.1060   -0.0430 ho        1 MOL      0.429198
    173 O25         3.1310   -4.8410    1.7880 oh        1 MOL     -0.876170
    174 H79         2.7740   -5.1590    2.6190 ho        1 MOL      0.429198
    175 H80         4.0730   -4.7730    1.9430 ho        1 MOL      0.429198
    176 O26         4.2280   -4.7050   -1.5600 oh        1 MOL     -0.876170
    177 H81         4.6210   -5.3510   -0.9670 ho        1 MOL      0.429198
    178 H82         4.6300   -4.8730   -2.4070 ho        1 MOL      0.429198
@<TRIPOS>BOND
     1    1    2 1   
     2    1    4 1   
     3    1    5 1   
     4    1    6 1   
     5    2    3 2   
     6    2    7 1   
     7    7    8 1   
     8    7   15 1   
     9    8    9 1   
    10    8   11 1   
    11    8   16 1   
    12    9   10 2   
    13    9   19 1   
    14   11   12 1   
    15   11   17 1   
    16   11   18 1   
    17   12   13 1   
    18   12   14 1   
    19   19   20 1   
    20   19   24 1   
    21   20   21 1   
    22   20   23 1   
    23   20   25 1   
    24   21   22 2   
    25   21   29 1   
    26   23   26 1   
    27   23   27 1   
    28   23   28 1   
    29   29   30 1   
    30   29   37 1   
    31   30   31 1   
    32   30   33 1   
    33   30   38 1   
    34   31   32 2   
    35   31   41 1   
    36   33   34 1   
    37   33   39 1   
    38   33   40 1   
    39   34   35 1   
    40   34   36 1   
    41   41   42 1   
    42   41   45 1   
    43   42   43 1   
    44   42   46 1   
    45   42   47 1   
    46   43   44 2   
    47   43   48 1   
    48   48   49 1   
    49   48   56 1   
    50   49   50 1   
    51   49   52 1   
    52   49   57 1   
    53   50   51 2   
    54   50   62 1   
    55   52   53 1   
    56   52   58 1   
    57   52   59 1   
    58   53   54 1   
    59   53   55 2   
    60   54   60 1   
    61   54   61 1   
    62   62   63 1   
    63   62   66 1   
    64   63   64 1   
    65   63   67 1   
    66   63   68 1   
    67   64   65 2   
    68   64   69 1   
    69   69   70 1   
    70   69   76 1   
    71   70   71 1   
    72   70   73 1   
    73   70   77 1   
    74   71   72 2   
    75   71   83 1   
    76   73   74 1   
    77   73   75 1   
    78   73   78 1   
    79   74   80 1   
    80   74   81 1   
    81   74   82 1   
    82   75   79 1   
    83   83   84 1   
    84   83   91 1   
    85   84   85 1   
    86   84   87 1   
    87   84   92 1   
    88   85   86 2   
    89   85  102 1   
    90   87   88 1   
    91   87   89 1   
    92   87   93 1   
    93   88   90 1   
    94   88   94 1   
    95   88   95 1   
    96   89   96 1   
    97   89   97 1   
    98   89   98 1   
    99   90   99 1   
   100   90  100 1   
   101   90  101 1   
   102  102  103 1   
   103  102  110 1   
   104  103  104 1   
   105  103  106 1   
   106  103  111 1   
   107  104  105 2   
   108  104  114 1   
   109  106  107 1   
   110  106  112 1   
   111  106  113 1   
   112  107  108 1   
   113  107  109 1   
   114  114  115 1   
   115  114  125 1   
   116  115  116 1   
   117  115  118 1   
   118  115  126 1   
   119  116  117 2   
   120  116  134 1   
   121  118  119 1   
   122  118  127 1   
   123  118  128 1   
   124  119  120 ar  
   125  119  121 ar  
   126  120  122 ar  
   127  120  129 1   
   128  121  123 ar  
   129  121  130 1   
   130  122  124 ar  
   131  122  131 1   
   132  123  124 ar  
   133  123  132 1   
   134  124  133 1   
   135  134  135 1   
   136  134  140 1   
   137  135  136 1   
   138  135  138 1   
   139  135  141 1   
   140  136  137 2   
   141  136  148 1   
   142  138  139 1   
   143  138  142 1   
   144  138  143 1   
   145  139  140 1   
   146  139  144 1   
   147  139  145 1   
   148  140  146 1   
   149  140  147 1   
   150  148  149 1   
   151  148  157 1   
   152  149  150 1   
   153  149  152 1   
   154  149  158 1   
   155  150  151 2   
   156  150  163 1   
   157  152  153 1   
   158  152  159 1   
   159  152  160 1   
   160  153  154 1   
   161  153  161 1   
   162  153  162 1   
   163  154  155 1   
   164  154  156 1   
   165  163  164 1   
   166  163  168 1   
   167  164  165 1   
   168  164  166 1   
   169  164  167 1   
   170  170  171 1   
   171  170  172 1   
   172  173  174 1   
   173  173  175 1   
   174  176  177 1   
   175  176  178 1   
@<TRIPOS>SUBSTRUCTURE
     1 MOL         1 TEMP              0 ****  ****    0 ROOT
