@<TRIPOS>MOLECULE
MOL
  178   175     1     0     0
SMALL
resp


@<TRIPOS>ATOM
      1 C1          1.6310   -5.3950    3.9810 c3        1 MOL     -0.403769
      2 C2          2.9990   -5.2040    3.2350 c         1 MOL      0.712660
      3 O1          3.2930   -6.0040    2.3590 o         1 MOL     -0.603199
      4 H1          1.4470   -6.4570    4.1360 hc        1 MOL      0.095546
      5 H2          1.6690   -4.8880    4.9460 hc        1 MOL      0.095546
      6 H3          0.8260   -4.9710    3.3790 hc        1 MOL      0.095546
      7 N1          3.8060   -4.2420    3.5610 n         1 MOL     -0.564654
      8 C3          5.0810   -4.0600    2.8130 c3        1 MOL      0.150469
      9 C4          4.7620   -3.5220    1.4230 c         1 MOL      0.418623
     10 O2          4.3530   -2.4150    1.2260 o         1 MOL     -0.494037
     11 C5          5.9910   -3.2030    3.6440 c3        1 MOL     -0.306978
     12 C6          7.2430   -2.9100    2.8690 c         1 MOL      0.775347
     13 O3          7.8020   -3.8120    2.1410 o         1 MOL     -0.745817
     14 O4          7.8260   -1.8320    3.0720 o         1 MOL     -0.745817
     15 H4          3.5140   -3.5650    4.2540 hn        1 MOL      0.312970
     16 H5          5.5630   -5.0280    2.6340 h1        1 MOL      0.057671
     17 H6          6.1580   -3.8010    4.5430 hc        1 MOL      0.052787
     18 H7          5.5340   -2.2600    3.9450 hc        1 MOL      0.052787
     19 N2          5.1510   -4.3240    0.3710 n         1 MOL     -0.355896
     20 C7          4.9230   -3.9580   -1.0900 c3        1 MOL      0.191238
     21 C8          3.4260   -4.1580   -1.4010 c         1 MOL      0.567540
     22 O5          2.6100   -4.5880   -0.5850 o         1 MOL     -0.527168
     23 C9          5.8270   -4.8380   -1.9250 c3        1 MOL     -0.354036
     24 H8          5.6070   -5.2030    0.5490 hn        1 MOL      0.254053
     25 H9          5.2900   -2.9400   -1.1410 h1        1 MOL      0.095871
     26 H10         6.8450   -4.4680   -1.8400 hc        1 MOL      0.084462
     27 H11         5.7150   -5.8710   -1.6110 hc        1 MOL      0.084462
     28 H12         5.6040   -4.7680   -2.9820 hc        1 MOL      0.084462
     29 N3          3.0010   -3.7930   -2.5810 n         1 MOL     -0.418537
     30 C10         3.5680   -2.7200   -3.4710 c3        1 MOL      0.100121
     31 C11         3.7970   -1.3220   -2.8020 c         1 MOL      0.146939
     32 O6          3.1360   -1.0530   -1.8460 o         1 MOL     -0.468808
     33 C12         2.6770   -2.5030   -4.6700 c3        1 MOL     -0.346672
     34 C13         1.2510   -2.3960   -4.1760 c         1 MOL      0.839740
     35 O7          0.4350   -3.3450   -4.1820 o         1 MOL     -0.703740
     36 O8          0.7660   -1.2850   -3.8510 o         1 MOL     -0.703740
     37 H13         2.0420   -3.9950   -2.8310 hn        1 MOL      0.227974
     38 H14         4.5380   -2.9560   -3.8870 h1        1 MOL      0.071715
     39 H15         2.8640   -3.3690   -5.3080 hc        1 MOL      0.085841
     40 H16         2.9580   -1.6320   -5.2670 hc        1 MOL      0.085841
     41 N4          4.7440   -0.5120   -3.2840 n         1 MOL     -0.255089
     42 C14         5.1440    0.7370   -2.6150 c3        1 MOL     -0.139935
     43 C15         5.7550    0.5290   -1.1440 c         1 MOL      0.576981
     44 O9          5.9740   -0.5210   -0.6850 o         1 MOL     -0.421012
     45 H17         5.2050   -0.7820   -4.1430 hn        1 MOL      0.266312
     46 H18         4.3100    1.4370   -2.5950 h1        1 MOL      0.125323
     47 H19         5.8880    1.2390   -3.2330 h1        1 MOL      0.125323
     48 N5          6.1530    1.5730   -0.3820 n         1 MOL     -0.587119
     49 C16         6.2210    2.9600   -0.6400 c3        1 MOL     -0.061797
     50 C17         5.4650    3.8130    0.4360 c         1 MOL      0.617842
     51 O10         5.4550    5.0160    0.3370 o         1 MOL     -0.549014
     52 C18         7.7410    3.2900   -0.7310 c3        1 MOL     -0.253176
     53 C19         8.5090    2.3630   -1.6110 c         1 MOL      0.806606
     54 N6          9.2020    1.4470   -1.0110 n         1 MOL     -0.905545
     55 O11         8.4270    2.5180   -2.7750 o         1 MOL     -0.587767
     56 H20         6.6460    1.3140    0.4600 hn        1 MOL      0.337022
     57 H21         5.7420    3.1850   -1.5940 h1        1 MOL      0.117569
     58 H22         8.1940    3.3210    0.2630 hc        1 MOL      0.069374
     59 H23         8.0120    4.2040   -1.2730 hc        1 MOL      0.069374
     60 H24         9.2450    1.3990   -0.0020 hn        1 MOL      0.404830
     61 H25         9.6800    0.7050   -1.4900 hn        1 MOL      0.404830
     62 N7          4.7940    3.2200    1.3760 n         1 MOL     -0.249186
     63 C20         4.4490    3.8330    2.6810 c3        1 MOL     -0.275638
     64 C21         3.2870    4.8430    2.5560 c         1 MOL      0.594853
     65 O12         3.1360    5.7300    3.3540 o         1 MOL     -0.555207
     66 H26         4.6780    2.2150    1.3190 hn        1 MOL      0.235345
     67 H27         5.3430    4.3440    3.0610 h1        1 MOL      0.135137
     68 H28         4.1060    3.0370    3.3250 h1        1 MOL      0.135137
     69 N8          2.5150    4.8270    1.4580 n         1 MOL     -0.315328
     70 C22         1.2320    5.5130    1.2280 c3        1 MOL     -0.008230
     71 C23         0.1430    4.5000    0.9580 c         1 MOL      0.464015
     72 O13         0.4730    3.3440    0.7520 o         1 MOL     -0.473650
     73 C24         1.2810    6.5230    0.1310 c3        1 MOL      0.478154
     74 C25         2.2580    7.6980    0.2610 c3        1 MOL     -0.459452
     75 O14         1.7540    5.9370   -1.0400 oh        1 MOL     -0.597383
     76 H29         2.8310    4.2430    0.7000 hn        1 MOL      0.181621
     77 H30         1.0020    6.1520    2.0840 h1        1 MOL      0.049981
     78 H31         0.2460    6.8310   -0.0080 h1        1 MOL     -0.079058
     79 H32         0.9430    5.9060   -1.5380 ho        1 MOL      0.385361
     80 H33         3.2560    7.3750    0.5460 hc        1 MOL      0.116022
     81 H34         2.3850    8.2990   -0.6340 hc        1 MOL      0.116022
     82 H35         1.9140    8.3560    1.0650 hc        1 MOL      0.116022
     83 N9         -1.1740    4.8140    1.1260 n         1 MOL     -0.408283
     84 C26        -2.2300    3.8640    0.9420 c3        1 MOL     -0.216652
     85 C27        -2.6680    3.8170   -0.5420 c         1 MOL      0.664875
     86 O15        -2.9210    4.8940   -1.1360 o         1 MOL     -0.596934
     87 C28        -3.3890    4.2350    1.9130 c3        1 MOL      0.134541
     88 C29        -4.6030    3.3630    1.8750 c3        1 MOL      0.325122
     89 C30        -3.0410    4.4570    3.4180 c3        1 MOL     -0.320883
     90 C31        -5.8690    3.8640    2.5800 c3        1 MOL     -0.350800
     91 H36        -1.3630    5.7830    1.3590 hn        1 MOL      0.299271
     92 H37        -2.0190    2.8270    1.2380 h1        1 MOL      0.222881
     93 H38        -3.8240    5.1840    1.5870 hc        1 MOL     -0.037699
     94 H39        -4.3920    2.3870    2.3080 hc        1 MOL     -0.069744
     95 H40        -4.9120    3.2400    0.8360 hc        1 MOL     -0.069744
     96 H41        -3.7770    4.9470    4.0580 hc        1 MOL      0.069696
     97 H42        -2.8190    3.5420    3.9670 hc        1 MOL      0.069696
     98 H43        -2.2360    5.1840    3.4620 hc        1 MOL      0.069696
     99 H44        -6.7670    3.4380    2.1440 hc        1 MOL      0.067946
    100 H45        -5.7660    3.8660    3.6750 hc        1 MOL      0.067946
    101 H46        -6.0860    4.9080    2.3910 hc        1 MOL      0.067946
    102 N10        -2.8750    2.6130   -1.1470 n         1 MOL     -0.408009
    103 C32        -3.4900    2.5210   -2.5320 c3        1 MOL      0.083350
    104 C33        -4.6140    1.3610   -2.5480 c         1 MOL      0.397553
    105 O16        -5.1280    1.1220   -3.6300 o         1 MOL     -0.536207
    106 C34        -2.3920    2.3680   -3.6360 c3        1 MOL     -0.109776
    107 C35        -1.2230    1.4480   -3.2190 c         1 MOL      0.769374
    108 O17        -0.0660    1.8180   -2.9150 o         1 MOL     -0.783491
    109 O18        -1.5490    0.2780   -2.8900 o         1 MOL     -0.783491
    110 H47        -2.6100    1.7640   -0.6760 hn        1 MOL      0.222148
    111 H48        -4.0790    3.4050   -2.7810 h1        1 MOL      0.068891
    112 H49        -1.9840    3.3420   -3.9130 hc        1 MOL      0.026668
    113 H50        -2.8330    1.9570   -4.5470 hc        1 MOL      0.026668
    114 N11        -4.9060    0.6270   -1.4990 n         1 MOL     -0.245362
    115 C36        -6.0920   -0.2010   -1.2870 c3        1 MOL      0.102183
    116 C37        -5.8620   -1.3220   -0.2120 c         1 MOL      0.436889
    117 O19        -6.4770   -1.3660    0.8630 o         1 MOL     -0.522982
    118 C38        -7.4130    0.5630   -0.9240 c3        1 MOL     -0.370405
    119 C39        -8.5300   -0.2040   -1.5000 ca        1 MOL      0.186918
    120 C40        -9.3250   -1.0150   -0.6510 ca        1 MOL     -0.197116
    121 C41        -8.9400   -0.0030   -2.8260 ca        1 MOL     -0.197116
    122 C42       -10.4390   -1.6410   -1.2380 ca        1 MOL     -0.066302
    123 C43       -10.0940   -0.5570   -3.3590 ca        1 MOL     -0.066302
    124 C44       -10.8670   -1.4130   -2.5360 ca        1 MOL     -0.209353
    125 H51        -4.2900    0.7460   -0.7060 hn        1 MOL      0.225520
    126 H52        -6.3570   -0.5490   -2.2830 h1        1 MOL      0.046662
    127 H53        -7.3910    1.5770   -1.3230 hc        1 MOL      0.128417
    128 H54        -7.5090    0.7030    0.1510 hc        1 MOL      0.128417
    129 H55        -8.9940   -1.2240    0.3530 ha        1 MOL      0.137213
    130 H56        -8.3260    0.6820   -3.3780 ha        1 MOL      0.137213
    131 H57       -10.9360   -2.3440   -0.5910 ha        1 MOL      0.087019
    132 H58       -10.5180   -0.1800   -4.2700 ha        1 MOL      0.087019
    133 H59       -11.6940   -1.9190   -3.0200 ha        1 MOL      0.116705
    134 N12        -4.9240   -2.2890   -0.5530 n         1 MOL     -0.232894
    135 C45        -4.6960   -3.4720    0.2780 c3        1 MOL      0.050243
    136 C46        -4.3140   -3.2230    1.7500 c         1 MOL      0.287060
    137 O20        -4.4780   -4.1360    2.5270 o         1 MOL     -0.537283
    138 C47        -3.5000   -4.1780   -0.4370 c3        1 MOL     -0.093194
    139 C48        -3.7730   -3.7670   -1.9210 c3        1 MOL     -0.281176
    140 C49        -4.1510   -2.3220   -1.8380 c3        1 MOL      0.103635
    141 H60        -5.5680   -4.1290    0.2110 h1        1 MOL      0.080253
    142 H61        -2.5700   -3.8440    0.0320 hc        1 MOL      0.075020
    143 H62        -3.5660   -5.2510   -0.2160 hc        1 MOL      0.075020
    144 H63        -2.8480   -3.9530   -2.4580 hc        1 MOL      0.085750
    145 H64        -4.5640   -4.4290   -2.2610 hc        1 MOL      0.085750
    146 H65        -3.3110   -1.6400   -1.7650 h1        1 MOL      0.085617
    147 H66        -4.6870   -2.0790   -2.7470 h1        1 MOL      0.085617
    148 N13        -3.9590   -2.0720    2.1730 n         1 MOL     -0.094204
    149 C50        -3.7650   -1.6170    3.5640 c3        1 MOL     -0.181972
    150 C51        -5.1320   -1.5360    4.2550 c         1 MOL      0.499349
    151 O21        -5.3700   -1.9460    5.3990 o         1 MOL     -0.558363
    152 C52        -2.9560   -0.3760    3.6710 c3        1 MOL      0.134451
    153 C53        -1.7890   -0.1760    2.7300 c3        1 MOL     -0.057733
    154 C54        -2.1460    0.1120    1.2670 c         1 MOL      0.494713
    155 O22        -1.2350   -0.0660    0.4180 o         1 MOL     -0.673080
    156 O23        -3.3150    0.4530    0.9490 o         1 MOL     -0.673080
    157 H67        -3.9490   -1.3360    1.4820 hn        1 MOL      0.283015
    158 H68        -3.1690   -2.3470    4.1140 h1        1 MOL      0.112710
    159 H69        -2.6220   -0.3140    4.7120 hc        1 MOL     -0.031184
    160 H70        -3.6370    0.4580    3.5090 hc        1 MOL     -0.031184
    161 H71        -1.1180   -1.0240    2.7870 hc        1 MOL      0.025876
    162 H72        -1.1580    0.6620    3.0030 hc        1 MOL      0.025876
    163 N14        -6.1390   -0.8410    3.6750 n         1 MOL     -0.118637
    164 C55        -7.4400   -0.5820    4.2500 c3        1 MOL     -0.243634
    165 H73        -7.3770    0.2760    4.9210 h1        1 MOL      0.087135
    166 H74        -8.1530   -0.3680    3.4540 h1        1 MOL      0.087135
    167 H75        -7.7710   -1.4570    4.8110 h1        1 MOL      0.087135
    168 H76        -5.9560   -0.2240    2.9040 hn        1 MOL      0.205114
    169 Ca1         0.4720   -0.4650   -1.4210 Ca        1 MOL      1.785851
    170 O24         2.0480    0.9730   -0.0160 oh        1 MOL     -0.865615
    171 H77         2.0880    1.9060    0.2200 ho        1 MOL      0.416922
    172 H78         2.8650    0.6020    0.3100 ho        1 MOL      0.416922
    173 O25         1.4690   -2.2080    0.3850 oh        1 MOL     -0.865615
    174 H79         1.5830   -3.1000    0.0650 ho        1 MOL      0.416922
    175 H80         2.1700   -2.0920    1.0250 ho        1 MOL      0.416922
    176 O26        -0.4610   -3.1940   -1.5350 oh        1 MOL     -0.865615
    177 H81        -0.6980   -3.3800   -2.4390 ho        1 MOL      0.416922
    178 H82        -0.6270   -4.0090   -1.0630 ho        1 MOL      0.416922
@<TRIPOS>BOND
     1    1    2 1   
     2    1    4 1   
     3    1    5 1   
     4    1    6 1   
     5    2    3 2   
     6    2    7 1   
     7    7    8 1   
     8    7   15 1   
     9    8    9 1   
    10    8   11 1   
    11    8   16 1   
    12    9   10 2   
    13    9   19 1   
    14   11   12 1   
    15   11   17 1   
    16   11   18 1   
    17   12   13 1   
    18   12   14 1   
    19   19   20 1   
    20   19   24 1   
    21   20   21 1   
    22   20   23 1   
    23   20   25 1   
    24   21   22 2   
    25   21   29 1   
    26   23   26 1   
    27   23   27 1   
    28   23   28 1   
    29   29   30 1   
    30   29   37 1   
    31   30   31 1   
    32   30   33 1   
    33   30   38 1   
    34   31   32 2   
    35   31   41 1   
    36   33   34 1   
    37   33   39 1   
    38   33   40 1   
    39   34   35 1   
    40   34   36 1   
    41   41   42 1   
    42   41   45 1   
    43   42   43 1   
    44   42   46 1   
    45   42   47 1   
    46   43   44 2   
    47   43   48 1   
    48   48   49 1   
    49   48   56 1   
    50   49   50 1   
    51   49   52 1   
    52   49   57 1   
    53   50   51 2   
    54   50   62 1   
    55   52   53 1   
    56   52   58 1   
    57   52   59 1   
    58   53   54 1   
    59   53   55 2   
    60   54   60 1   
    61   54   61 1   
    62   62   63 1   
    63   62   66 1   
    64   63   64 1   
    65   63   67 1   
    66   63   68 1   
    67   64   65 2   
    68   64   69 1   
    69   69   70 1   
    70   69   76 1   
    71   70   71 1   
    72   70   73 1   
    73   70   77 1   
    74   71   72 2   
    75   71   83 1   
    76   73   74 1   
    77   73   75 1   
    78   73   78 1   
    79   74   80 1   
    80   74   81 1   
    81   74   82 1   
    82   75   79 1   
    83   83   84 1   
    84   83   91 1   
    85   84   85 1   
    86   84   87 1   
    87   84   92 1   
    88   85   86 2   
    89   85  102 1   
    90   87   88 1   
    91   87   89 1   
    92   87   93 1   
    93   88   90 1   
    94   88   94 1   
    95   88   95 1   
    96   89   96 1   
    97   89   97 1   
    98   89   98 1   
    99   90   99 1   
   100   90  100 1   
   101   90  101 1   
   102  102  103 1   
   103  102  110 1   
   104  103  104 1   
   105  103  106 1   
   106  103  111 1   
   107  104  105 2   
   108  104  114 1   
   109  106  107 1   
   110  106  112 1   
   111  106  113 1   
   112  107  108 1   
   113  107  109 1   
   114  114  115 1   
   115  114  125 1   
   116  115  116 1   
   117  115  118 1   
   118  115  126 1   
   119  116  117 2   
   120  116  134 1   
   121  118  119 1   
   122  118  127 1   
   123  118  128 1   
   124  119  120 ar  
   125  119  121 ar  
   126  120  122 ar  
   127  120  129 1   
   128  121  123 ar  
   129  121  130 1   
   130  122  124 ar  
   131  122  131 1   
   132  123  124 ar  
   133  123  132 1   
   134  124  133 1   
   135  134  135 1   
   136  134  140 1   
   137  135  136 1   
   138  135  138 1   
   139  135  141 1   
   140  136  137 2   
   141  136  148 1   
   142  138  139 1   
   143  138  142 1   
   144  138  143 1   
   145  139  140 1   
   146  139  144 1   
   147  139  145 1   
   148  140  146 1   
   149  140  147 1   
   150  148  149 1   
   151  148  157 1   
   152  149  150 1   
   153  149  152 1   
   154  149  158 1   
   155  150  151 2   
   156  150  163 1   
   157  152  153 1   
   158  152  159 1   
   159  152  160 1   
   160  153  154 1   
   161  153  161 1   
   162  153  162 1   
   163  154  155 1   
   164  154  156 1   
   165  163  164 1   
   166  163  168 1   
   167  164  165 1   
   168  164  166 1   
   169  164  167 1   
   170  170  171 1   
   171  170  172 1   
   172  173  174 1   
   173  173  175 1   
   174  176  177 1   
   175  176  178 1   
@<TRIPOS>SUBSTRUCTURE
     1 MOL         1 TEMP              0 ****  ****    0 ROOT
