@<TRIPOS>MOLECULE
MOL
  201   193     1     0     0
SMALL
resp


@<TRIPOS>ATOM
      1 C1         -4.2710    5.9530    1.6560 c3        1 MOL     -0.402569
      2 C2         -5.1130    4.7060    2.1010 c         1 MOL      0.692138
      3 O1         -4.5290    3.8030    2.7180 o         1 MOL     -0.574300
      4 H1         -3.8550    6.4420    2.5360 hc        1 MOL      0.105202
      5 H2         -3.4610    5.6300    1.0020 hc        1 MOL      0.105202
      6 H3         -4.9130    6.6530    1.1210 hc        1 MOL      0.105202
      7 N1         -6.3490    4.5310    1.6050 n         1 MOL     -0.474234
      8 C3         -7.0700    3.3780    2.0840 c3        1 MOL     -0.083256
      9 C4         -6.5310    2.0480    1.4040 c         1 MOL      0.493479
     10 O2         -5.6770    2.0010    0.4510 o         1 MOL     -0.558895
     11 C5         -8.5570    3.6120    1.7700 c3        1 MOL     -0.101714
     12 C6         -8.8350    4.0080    0.2990 c         1 MOL      0.496778
     13 O3         -9.5100    4.9990   -0.0680 o         1 MOL     -0.633648
     14 O4         -8.3430    3.2670   -0.5990 o         1 MOL     -0.633648
     15 H4         -6.8370    5.3320    1.2360 hn        1 MOL      0.325537
     16 H5         -6.9220    3.2910    3.1600 h1        1 MOL      0.082368
     17 H6         -8.9230    4.3530    2.4840 hc        1 MOL      0.073233
     18 H7         -9.2050    2.7690    1.9850 hc        1 MOL      0.073233
     19 N2         -7.0610    0.9700    1.8970 n         1 MOL     -0.484375
     20 C7         -6.6280   -0.4080    1.6650 c3        1 MOL      0.895187
     21 C8         -7.7990   -1.3110    1.1460 c         1 MOL      0.194885
     22 O5         -7.8290   -2.4500    1.3930 o         1 MOL     -0.497425
     23 C9         -6.0590   -0.8510    3.0360 c3        1 MOL     -0.338678
     24 C10        -5.2340   -2.1790    2.9810 c3        1 MOL      0.061654
     25 C11        -4.6090   -2.4600    4.3330 c3        1 MOL      0.076594
     26 C12        -4.0130   -3.9040    4.4190 c3        1 MOL     -0.213942
     27 N3         -2.9650   -4.2090    3.4340 n4        1 MOL     -0.131322
     28 H8         -7.7880    1.1890    2.5630 hn        1 MOL      0.235264
     29 H9         -5.8810   -0.3530    0.8770 h1        1 MOL     -0.249581
     30 H10        -6.9250   -0.9610    3.6910 hc        1 MOL      0.073349
     31 H11        -5.3110   -0.1240    3.3480 hc        1 MOL      0.073349
     32 H12        -4.3640   -2.0810    2.3320 hc        1 MOL      0.012881
     33 H13        -5.8480   -3.0660    2.7940 hc        1 MOL      0.012881
     34 H14        -5.3110   -2.3460    5.1620 hc        1 MOL      0.005087
     35 H15        -3.7930   -1.7460    4.3620 hc        1 MOL      0.005087
     36 H16        -4.8320   -4.5990    4.3070 hx        1 MOL      0.124666
     37 H17        -3.5540   -4.0120    5.4030 hx        1 MOL      0.124666
     38 H18        -2.2830   -3.4600    3.4030 hn        1 MOL      0.272201
     39 H19        -2.3910   -5.0250    3.5580 hn        1 MOL      0.272201
     40 H20        -3.2760   -4.1150    2.4740 hn        1 MOL      0.272201
     41 N4         -8.6130   -0.7660    0.2630 n         1 MOL     -0.313062
     42 C13        -9.7720   -1.5820   -0.3600 c3        1 MOL      0.598627
     43 C14        -9.8080   -1.5560   -2.0090 c         1 MOL      0.237593
     44 O6         -9.8960   -0.4610   -2.6010 o         1 MOL     -0.483778
     45 C15       -11.0570   -1.0350    0.3010 c3        1 MOL     -0.370567
     46 C16       -11.2900    0.5230    0.3060 c         1 MOL      0.733777
     47 O7        -12.4110    0.9030    0.7420 o         1 MOL     -0.669786
     48 O8        -10.5190    1.2770   -0.3150 o         1 MOL     -0.669786
     49 H21        -8.6480    0.2450    0.1740 hn        1 MOL      0.065594
     50 H22        -9.6550   -2.6330   -0.0930 h1        1 MOL     -0.030805
     51 H23       -11.1400   -1.3420    1.3370 hc        1 MOL      0.058905
     52 H24       -11.8440   -1.5490   -0.2490 hc        1 MOL      0.058905
     53 N5         -9.6030   -2.6950   -2.7810 n         1 MOL     -0.325807
     54 C17        -9.4610   -4.0590   -2.1790 c3        1 MOL     -0.256391
     55 C18        -8.0790   -4.2830   -1.5810 c         1 MOL      0.615688
     56 O9         -7.8730   -5.2110   -0.8180 o         1 MOL     -0.531952
     57 H25        -9.3680   -2.6070   -3.7640 hn        1 MOL      0.296056
     58 H26        -9.6160   -4.8050   -2.9670 h1        1 MOL      0.133454
     59 H27       -10.1730   -4.1950   -1.3640 h1        1 MOL      0.133454
     60 N6         -7.1190   -3.4400   -2.0060 n         1 MOL     -0.572882
     61 C19        -5.7170   -3.7400   -1.6710 c3        1 MOL      0.341822
     62 C20        -4.9650   -2.4480   -1.3910 c         1 MOL      0.348806
     63 O10        -5.3820   -1.3950   -1.8610 o         1 MOL     -0.529325
     64 C21        -5.0750   -4.4250   -2.8640 c3        1 MOL     -0.217457
     65 C22        -3.6630   -5.0680   -2.6590 c         1 MOL      0.687407
     66 O11        -3.2400   -5.2470   -1.4960 o         1 MOL     -0.691121
     67 O12        -2.9890   -5.4820   -3.6210 o         1 MOL     -0.691121
     68 H28        -7.3770   -2.6720   -2.6180 hn        1 MOL      0.286708
     69 H29        -5.7120   -4.3650   -0.7850 h1        1 MOL     -0.005203
     70 H30        -4.9760   -3.7160   -3.6860 hc        1 MOL      0.041933
     71 H31        -5.6880   -5.2390   -3.2520 hc        1 MOL      0.041933
     72 N7         -3.8150   -2.5200   -0.7010 n         1 MOL     -0.083862
     73 C23        -2.9870   -1.3710   -0.2520 c3        1 MOL     -0.498560
     74 C24        -1.9280   -1.7640    0.7650 c         1 MOL      0.919150
     75 O13        -1.7740   -2.9010    1.1600 o         1 MOL     -0.618566
     76 H32        -3.5740   -3.4610   -0.4170 hn        1 MOL      0.082828
     77 H33        -3.6670   -0.6400    0.1710 h1        1 MOL      0.208531
     78 H34        -2.4110   -0.9990   -1.1100 h1        1 MOL      0.208531
     79 N8         -1.1500   -0.8140    1.2920 n         1 MOL     -0.582115
     80 C25        -0.0830   -0.8230    2.2430 c3        1 MOL      0.078453
     81 C26         0.9140    0.3370    1.8930 c         1 MOL      0.417131
     82 O14         0.5640    1.3700    1.2180 o         1 MOL     -0.450510
     83 C27        -0.6180   -0.7170    3.7440 c3        1 MOL      0.493079
     84 C28        -1.3540    0.5030    4.0580 c3        1 MOL     -0.703615
     85 O15        -1.2250   -1.9370    4.0800 oh        1 MOL     -0.623752
     86 H35        -1.3290    0.1130    0.9310 hn        1 MOL      0.239909
     87 H36         0.4180   -1.7930    2.1600 h1        1 MOL      0.015824
     88 H37         0.3000   -0.7220    4.3360 h1        1 MOL     -0.028955
     89 H38        -0.5150   -2.5550    4.2820 ho        1 MOL      0.368085
     90 H39        -0.8060    1.3110    3.5760 hc        1 MOL      0.208666
     91 H40        -2.3520    0.4140    3.6410 hc        1 MOL      0.208666
     92 H41        -1.4720    0.7380    5.1250 hc        1 MOL      0.208666
     93 N9          2.0560    0.3860    2.6470 n         1 MOL     -0.453269
     94 C29         3.0410    1.4940    2.5740 c3        1 MOL      0.237577
     95 C30         4.1310    1.2680    1.5180 c         1 MOL      0.401160
     96 O16         4.5200    2.1870    0.7790 o         1 MOL     -0.512794
     97 C31         3.6220    1.7310    3.9300 c3        1 MOL     -0.003057
     98 C32         2.5640    1.8580    5.0290 c3        1 MOL      0.071148
     99 C33         4.5020    3.0570    3.9700 c3        1 MOL     -0.458279
    100 C34         1.5880    2.9970    4.8900 c3        1 MOL     -0.173531
    101 H42         2.1980   -0.3430    3.3230 hn        1 MOL      0.250924
    102 H43         2.5970    2.4580    2.3240 h1        1 MOL      0.058189
    103 H44         4.3040    0.9210    4.1910 hc        1 MOL      0.013586
    104 H45         3.0550    2.1250    5.9670 hc        1 MOL     -0.014693
    105 H46         2.1300    0.8760    5.1760 hc        1 MOL     -0.014693
    106 H47         3.9360    3.8710    3.5210 hc        1 MOL      0.141647
    107 H48         4.5900    3.3840    5.0070 hc        1 MOL      0.141647
    108 H49         5.5170    2.8940    3.5940 hc        1 MOL      0.141647
    109 H50         2.1190    3.9400    4.8050 hc        1 MOL      0.053678
    110 H51         0.9820    2.9000    3.9820 hc        1 MOL      0.053678
    111 H52         0.9370    2.8980    5.7640 hc        1 MOL      0.053678
    112 N10         4.4750   -0.0020    1.3000 n         1 MOL     -0.281019
    113 C35         5.3050   -0.4700    0.1370 c3        1 MOL     -0.041803
    114 C36         6.2970   -1.5060    0.6490 c         1 MOL      0.482497
    115 O17         5.7500   -2.3820    1.3630 o         1 MOL     -0.532357
    116 C37         4.3670   -0.9330   -1.0520 c3        1 MOL      0.405703
    117 C38         3.0550   -1.6140   -0.6810 c3        1 MOL     -0.362619
    118 O18         3.9620    0.1710   -1.7440 oh        1 MOL     -0.624590
    119 H53         4.2250   -0.6900    2.0070 hn        1 MOL      0.201030
    120 H54         5.9150    0.3950   -0.1290 h1        1 MOL      0.109243
    121 H55         4.9460   -1.5970   -1.6900 h1        1 MOL     -0.008463
    122 H56         3.0030    0.2500   -1.7500 ho        1 MOL      0.414611
    123 H57         2.5500   -1.9800   -1.5770 hc        1 MOL      0.096549
    124 H58         3.2690   -2.5290   -0.1170 hc        1 MOL      0.096549
    125 H59         2.4120   -0.9320   -0.1210 hc        1 MOL      0.096549
    126 N11         7.6240   -1.5160    0.3590 n         1 MOL     -0.399299
    127 C39         8.4780   -2.5000    1.0010 c3        1 MOL     -0.191108
    128 C40         9.8820   -1.9100    1.0920 c         1 MOL      0.648056
    129 O19        10.4430   -1.7490    2.1410 o         1 MOL     -0.542735
    130 C41         8.4760   -3.9330    0.3300 c3        1 MOL      0.343660
    131 C42         9.2800   -5.0640    1.0210 c3        1 MOL     -0.356750
    132 O20         8.7840   -3.7920   -1.0460 oh        1 MOL     -0.616418
    133 H60         7.9860   -0.7540   -0.2010 hn        1 MOL      0.267708
    134 H61         8.1920   -2.6170    2.0470 h1        1 MOL      0.128668
    135 H62         7.4540   -4.3160    0.3270 h1        1 MOL      0.040100
    136 H63         8.0080   -3.5180   -1.5280 ho        1 MOL      0.400226
    137 H64         9.3620   -4.7880    2.0740 hc        1 MOL      0.106615
    138 H65         8.7910   -6.0250    0.9050 hc        1 MOL      0.106615
    139 H66        10.3170   -5.0650    0.6490 hc        1 MOL      0.106615
    140 N12        10.4780   -1.6080   -0.1080 n         1 MOL     -0.380565
    141 C43        11.6540   -0.7950   -0.3540 c3        1 MOL     -0.000409
    142 C44        11.5400    0.3080   -1.3720 c         1 MOL      0.538954
    143 O21        10.9230    0.0060   -2.4080 o         1 MOL     -0.492805
    144 C45        12.6480   -1.8360   -0.9230 c3        1 MOL     -0.023068
    145 C46        14.0350   -1.4300   -0.7070 c3        1 MOL      0.036276
    146 C47        15.0860   -2.2960   -1.5070 c3        1 MOL     -0.071394
    147 C48        16.4700   -2.1210   -0.9160 c3        1 MOL      0.056849
    148 N13        17.3880   -3.0640   -1.4840 n4        1 MOL     -0.151863
    149 H67        10.0020   -1.8440   -0.9650 hn        1 MOL      0.226538
    150 H68        12.0630   -0.3850    0.5660 h1        1 MOL      0.021309
    151 H69        12.5200   -1.8990   -2.0080 hc        1 MOL      0.030654
    152 H70        12.5850   -2.8460   -0.5220 hc        1 MOL      0.030654
    153 H71        14.2470   -1.6730    0.3330 hc        1 MOL     -0.003056
    154 H72        14.2050   -0.3630   -0.8900 hc        1 MOL     -0.003056
    155 H73        15.1480   -1.9180   -2.5290 hc        1 MOL      0.042472
    156 H74        14.7950   -3.3370   -1.3980 hc        1 MOL      0.042472
    157 H75        16.3190   -2.1650    0.1630 hx        1 MOL      0.066530
    158 H76        16.7910   -1.1170   -1.1890 hx        1 MOL      0.066530
    159 H77        17.1730   -4.0010   -1.1730 hn        1 MOL      0.230392
    160 H78        17.5390   -3.1300   -2.4810 hn        1 MOL      0.230392
    161 H79        18.2920   -2.8830   -1.0820 hn        1 MOL      0.230392
    162 N14        12.1090    1.4490   -1.1770 n         1 MOL     -0.466228
    163 C49        11.9700    2.4810   -2.1540 c3        1 MOL      0.376662
    164 C50        10.4650    2.9270   -2.0430 c         1 MOL      0.222655
    165 O22         9.8360    2.7440   -3.0920 o         1 MOL     -0.507429
    166 C51        12.9610    3.6190   -2.0170 c3        1 MOL     -0.101848
    167 C52        14.4020    3.2330   -2.2760 c3        1 MOL     -0.302724
    168 C53        15.3900    4.4250   -2.1050 c         1 MOL      0.728958
    169 O23        15.4000    5.1830   -1.1300 o         1 MOL     -0.664448
    170 O24        16.3280    4.4890   -2.9200 o         1 MOL     -0.664448
    171 H80        12.6610    1.6820   -0.3630 hn        1 MOL      0.312700
    172 H81        12.0950    2.0100   -3.1260 h1        1 MOL      0.010186
    173 H82        12.9020    4.0700   -1.0310 hc        1 MOL      0.058848
    174 H83        12.7730    4.3340   -2.8210 hc        1 MOL      0.058848
    175 H84        14.3970    2.8210   -3.2930 hc        1 MOL      0.052619
    176 H85        14.7160    2.4660   -1.5730 hc        1 MOL      0.052619
    177 N15         9.8560    3.3440   -0.9550 n         1 MOL     -0.274793
    178 C54        10.4230    3.6940    0.3580 c3        1 MOL     -0.066077
    179 H86        10.6510    4.7600    0.3820 h1        1 MOL      0.048858
    180 H87         9.7010    3.4600    1.1400 h1        1 MOL      0.048858
    181 H88        11.3370    3.1240    0.5230 h1        1 MOL      0.048858
    182 H89         8.8570    3.4800   -1.0020 hn        1 MOL      0.300318
    183 Ca1        -9.3350    2.0580   -2.6210 Ca        1 MOL      1.713518
    184 O25       -11.9150    2.9000   -2.4390 oh        1 MOL     -0.805876
    185 H90       -12.1990    3.8000   -2.3050 ho        1 MOL      0.397194
    186 H91       -12.3080    2.4170   -1.7110 ho        1 MOL      0.397194
    187 O26        -9.6490    4.8250   -2.8080 oh        1 MOL     -0.805876
    188 H92        -9.2060    5.0460   -1.9980 ho        1 MOL      0.397194
    189 H93        -9.0720    5.1500   -3.4960 ho        1 MOL      0.397194
    190 O27        -7.2900    3.4540   -3.6210 oh        1 MOL     -0.805876
    191 H94        -6.8490    3.9470   -2.9390 ho        1 MOL      0.397194
    192 H95        -6.5890    3.1210   -4.1770 ho        1 MOL      0.397194
    193 O28       -10.6450    1.9060   -4.9830 oh        1 MOL     -0.805876
    194 H96       -10.2840    2.3640   -5.7440 ho        1 MOL      0.397194
    195 H97       -11.5640    1.7430   -5.2210 ho        1 MOL      0.397194
    196 O29        -8.0800    0.6570   -4.5570 oh        1 MOL     -0.805876
    197 H98        -8.6950    0.1020   -5.0340 ho        1 MOL      0.397194
    198 H99        -7.4660    0.9550   -5.2260 ho        1 MOL      0.397194
    199 O30        -7.0300    0.8790   -1.5690 oh        1 MOL     -0.805876
    200 H100       -6.4790    1.2660   -0.8970 ho        1 MOL      0.397194
    201 H101       -6.5080    0.1540   -1.9170 ho        1 MOL      0.397194
@<TRIPOS>BOND
     1    1    2 1   
     2    1    4 1   
     3    1    5 1   
     4    1    6 1   
     5    2    3 2   
     6    2    7 1   
     7    7    8 1   
     8    7   15 1   
     9    8    9 1   
    10    8   11 1   
    11    8   16 1   
    12    9   10 2   
    13    9   19 1   
    14   11   12 1   
    15   11   17 1   
    16   11   18 1   
    17   12   13 1   
    18   12   14 1   
    19   19   20 1   
    20   19   28 1   
    21   20   21 1   
    22   20   23 1   
    23   20   29 1   
    24   21   22 2   
    25   21   41 1   
    26   23   24 1   
    27   23   30 1   
    28   23   31 1   
    29   24   25 1   
    30   24   32 1   
    31   24   33 1   
    32   25   26 1   
    33   25   34 1   
    34   25   35 1   
    35   26   27 1   
    36   26   36 1   
    37   26   37 1   
    38   27   38 1   
    39   27   39 1   
    40   27   40 1   
    41   41   42 1   
    42   41   49 1   
    43   42   43 1   
    44   42   45 1   
    45   42   50 1   
    46   43   44 2   
    47   43   53 1   
    48   45   46 1   
    49   45   51 1   
    50   45   52 1   
    51   46   47 1   
    52   46   48 1   
    53   53   54 1   
    54   53   57 1   
    55   54   55 1   
    56   54   58 1   
    57   54   59 1   
    58   55   56 2   
    59   55   60 1   
    60   60   61 1   
    61   60   68 1   
    62   61   62 1   
    63   61   64 1   
    64   61   69 1   
    65   62   63 2   
    66   62   72 1   
    67   64   65 1   
    68   64   70 1   
    69   64   71 1   
    70   65   66 1   
    71   65   67 1   
    72   72   73 1   
    73   72   76 1   
    74   73   74 1   
    75   73   77 1   
    76   73   78 1   
    77   74   75 2   
    78   74   79 1   
    79   79   80 1   
    80   79   86 1   
    81   80   81 1   
    82   80   83 1   
    83   80   87 1   
    84   81   82 2   
    85   81   93 1   
    86   83   84 1   
    87   83   85 1   
    88   83   88 1   
    89   84   90 1   
    90   84   91 1   
    91   84   92 1   
    92   85   89 1   
    93   93   94 1   
    94   93  101 1   
    95   94   95 1   
    96   94   97 1   
    97   94  102 1   
    98   95   96 2   
    99   95  112 1   
   100   97   98 1   
   101   97   99 1   
   102   97  103 1   
   103   98  100 1   
   104   98  104 1   
   105   98  105 1   
   106   99  106 1   
   107   99  107 1   
   108   99  108 1   
   109  100  109 1   
   110  100  110 1   
   111  100  111 1   
   112  112  113 1   
   113  112  119 1   
   114  113  114 1   
   115  113  116 1   
   116  113  120 1   
   117  114  115 2   
   118  114  126 1   
   119  116  117 1   
   120  116  118 1   
   121  116  121 1   
   122  117  123 1   
   123  117  124 1   
   124  117  125 1   
   125  118  122 1   
   126  126  127 1   
   127  126  133 1   
   128  127  128 1   
   129  127  130 1   
   130  127  134 1   
   131  128  129 2   
   132  128  140 1   
   133  130  131 1   
   134  130  132 1   
   135  130  135 1   
   136  131  137 1   
   137  131  138 1   
   138  131  139 1   
   139  132  136 1   
   140  140  141 1   
   141  140  149 1   
   142  141  142 1   
   143  141  144 1   
   144  141  150 1   
   145  142  143 2   
   146  142  162 1   
   147  144  145 1   
   148  144  151 1   
   149  144  152 1   
   150  145  146 1   
   151  145  153 1   
   152  145  154 1   
   153  146  147 1   
   154  146  155 1   
   155  146  156 1   
   156  147  148 1   
   157  147  157 1   
   158  147  158 1   
   159  148  159 1   
   160  148  160 1   
   161  148  161 1   
   162  162  163 1   
   163  162  171 1   
   164  163  164 1   
   165  163  166 1   
   166  163  172 1   
   167  164  165 2   
   168  164  177 1   
   169  166  167 1   
   170  166  173 1   
   171  166  174 1   
   172  167  168 1   
   173  167  175 1   
   174  167  176 1   
   175  168  169 1   
   176  168  170 1   
   177  177  178 1   
   178  177  182 1   
   179  178  179 1   
   180  178  180 1   
   181  178  181 1   
   182  184  185 1   
   183  184  186 1   
   184  187  188 1   
   185  187  189 1   
   186  190  191 1   
   187  190  192 1   
   188  193  194 1   
   189  193  195 1   
   190  196  197 1   
   191  196  198 1   
   192  199  200 1   
   193  199  201 1   
@<TRIPOS>SUBSTRUCTURE
     1 MOL         1 TEMP              0 ****  ****    0 ROOT
