@<TRIPOS>MOLECULE
MOL
  184   179     1     0     0
SMALL
resp


@<TRIPOS>ATOM
      1 C1          6.9090    7.9900    0.0030 c3        1 MOL     -0.376583
      2 C2          6.1000    6.8880    0.7540 c         1 MOL      0.611163
      3 O1          5.5460    7.0830    1.8810 o         1 MOL     -0.595386
      4 H1          7.9730    7.7560    0.0530 hc        1 MOL      0.108998
      5 H2          6.5950    8.0260   -1.0400 hc        1 MOL      0.108998
      6 H3          6.7280    8.9580    0.4710 hc        1 MOL      0.108998
      7 N1          5.9390    5.7180    0.2530 n         1 MOL     -0.466220
      8 C3          6.4990    4.9920   -0.9420 c3        1 MOL      0.159568
      9 C4          7.7480    4.1620   -0.6180 c         1 MOL      0.384144
     10 O2          8.4390    3.5640   -1.4690 o         1 MOL     -0.525434
     11 C5          5.3800    4.0890   -1.6790 c3        1 MOL     -0.451777
     12 C6          4.7020    2.9890   -0.8280 c         1 MOL      1.024418
     13 O3          3.5280    3.0130   -0.4230 o         1 MOL     -0.804656
     14 O4          5.3230    1.9660   -0.5650 o         1 MOL     -0.804656
     15 H4          5.3890    5.1010    0.8280 hn        1 MOL      0.281978
     16 H5          6.8620    5.6690   -1.7090 h1        1 MOL      0.090881
     17 H6          5.8060    3.5700   -2.5330 hc        1 MOL      0.123244
     18 H7          4.6370    4.7680   -2.1020 hc        1 MOL      0.123244
     19 N2          8.0070    3.9620    0.6930 n         1 MOL     -0.397425
     20 C7          9.1180    3.1360    1.2450 c3        1 MOL      0.180157
     21 C8          9.0940    1.6930    0.8040 c         1 MOL      0.550959
     22 O5         10.2090    1.1770    0.9780 o         1 MOL     -0.591602
     23 C9          9.0540    3.3250    2.7420 c3        1 MOL     -0.325014
     24 H8          7.2410    4.1960    1.3130 hn        1 MOL      0.242076
     25 H9         10.0720    3.5290    0.8980 h1        1 MOL      0.078923
     26 H10         9.7820    2.6810    3.2240 hc        1 MOL      0.087849
     27 H11         9.2030    4.3880    2.9240 hc        1 MOL      0.087849
     28 H12         8.0250    3.0450    2.9960 hc        1 MOL      0.087849
     29 N3          8.0680    1.1270    0.1110 n         1 MOL     -0.268387
     30 C10         8.1930   -0.2880   -0.4600 c3        1 MOL     -0.013530
     31 C11         7.6850   -0.3730   -1.8730 c         1 MOL      0.376905
     32 O6          8.1820   -1.2350   -2.5510 o         1 MOL     -0.511076
     33 C12         7.5700   -1.3530    0.5010 c3        1 MOL     -0.375493
     34 C13         6.0870   -1.1910    0.8710 c         1 MOL      0.750136
     35 O7          5.6560   -0.8310    1.9570 o         1 MOL     -0.690687
     36 O8          5.2930   -1.1850   -0.1120 o         1 MOL     -0.690687
     37 H13         7.2610    1.6840   -0.0840 hn        1 MOL      0.111204
     38 H14         9.2630   -0.4680   -0.5080 h1        1 MOL      0.122416
     39 H15         8.1230   -1.3350    1.4410 hc        1 MOL      0.089665
     40 H16         7.7720   -2.3240    0.0460 hc        1 MOL      0.089665
     41 N4          6.5820    0.3260   -2.2450 n         1 MOL     -0.028102
     42 C14         5.8920    0.2420   -3.4430 c3        1 MOL     -0.499110
     43 C15         5.2560   -1.1940   -3.7870 c         1 MOL      0.690669
     44 O9          4.5550   -1.2940   -4.8270 o         1 MOL     -0.584800
     45 H17         6.2360    0.9930   -1.5640 hn        1 MOL      0.233253
     46 H18         6.6700    0.3040   -4.2020 h1        1 MOL      0.165535
     47 H19         5.1100    0.9900   -3.5630 h1        1 MOL      0.165535
     48 N5          5.5190   -2.2100   -2.9780 n         1 MOL     -0.623960
     49 C16         5.1660   -3.6380   -3.1630 c3        1 MOL      0.082427
     50 C17         4.0080   -4.1030   -2.2860 c         1 MOL      0.545921
     51 O10         3.5680   -5.1990   -2.4470 o         1 MOL     -0.569389
     52 C18         6.5220   -4.3810   -2.8800 c3        1 MOL     -0.264652
     53 C19         7.6330   -4.0310   -3.8280 c         1 MOL      0.731982
     54 N6          8.8770   -4.0380   -3.4470 n         1 MOL     -0.867936
     55 O11         7.4140   -3.9160   -5.0170 o         1 MOL     -0.554026
     56 H20         6.2240   -2.0750   -2.2640 hn        1 MOL      0.491976
     57 H21         4.9270   -3.7670   -4.2200 h1        1 MOL      0.093966
     58 H22         6.3750   -5.4500   -3.0260 hc        1 MOL      0.075187
     59 H23         6.8000   -4.1620   -1.8570 hc        1 MOL      0.075187
     60 H24         9.1620   -4.3360   -2.5230 hn        1 MOL      0.377453
     61 H25         9.5860   -3.7360   -4.0900 hn        1 MOL      0.377453
     62 N7          3.6040   -3.4380   -1.1890 n         1 MOL     -0.257922
     63 C20         2.7500   -3.9560   -0.1860 c3        1 MOL     -0.120984
     64 C21         2.3530   -3.0870    0.9320 c         1 MOL      0.752873
     65 O12         2.7480   -1.9190    0.9720 o         1 MOL     -0.649305
     66 H26         4.0830   -2.5800   -0.9540 hn        1 MOL      0.102028
     67 H27         3.3470   -4.7230    0.3100 h1        1 MOL      0.102857
     68 H28         1.9530   -4.4480   -0.7410 h1        1 MOL      0.102857
     69 N8          1.3870   -3.4970    1.8460 n         1 MOL     -0.600222
     70 C22         0.5520   -4.7500    1.8170 c3        1 MOL     -0.016029
     71 C23        -0.9460   -4.3740    2.1750 c         1 MOL      0.434910
     72 O13        -1.9340   -5.1010    2.0620 o         1 MOL     -0.488224
     73 C24         1.1180   -5.7700    2.7600 c3        1 MOL      0.304515
     74 C25         0.4930   -7.1400    2.5530 c3        1 MOL     -0.353066
     75 O14         2.5260   -5.9940    2.4540 oh        1 MOL     -0.636207
     76 H29         1.3110   -2.9190    2.6740 hn        1 MOL      0.325237
     77 H30         0.5760   -5.1540    0.8050 h1        1 MOL      0.130376
     78 H31         0.9360   -5.5140    3.8060 h1        1 MOL      0.057020
     79 H32         2.6340   -6.8230    1.9720 ho        1 MOL      0.384087
     80 H33         0.5170   -7.3790    1.4870 hc        1 MOL      0.098422
     81 H34         0.9810   -7.9090    3.1510 hc        1 MOL      0.098422
     82 H35        -0.5720   -7.2390    2.7470 hc        1 MOL      0.098422
     83 N9         -1.1650   -3.1070    2.5300 n         1 MOL     -0.373131
     84 C26        -2.4720   -2.4200    2.6660 c3        1 MOL     -0.079212
     85 C27        -2.4800   -1.1150    1.8020 c         1 MOL      0.398615
     86 O15        -1.8650   -0.1200    2.1730 o         1 MOL     -0.522040
     87 C28        -2.8780   -2.0900    4.1240 c3        1 MOL      0.086079
     88 C29        -2.8650   -3.3520    4.9550 c3        1 MOL      0.091630
     89 C30        -4.2130   -1.3540    4.1730 c3        1 MOL      0.024172
     90 C31        -2.4290   -3.0520    6.4220 c3        1 MOL     -0.481973
     91 H36        -0.3300   -2.6680    2.9020 hn        1 MOL      0.224109
     92 H37        -3.2930   -3.0550    2.3040 h1        1 MOL      0.133398
     93 H38        -2.0810   -1.4430    4.4670 hc        1 MOL      0.049153
     94 H39        -2.2020   -4.1380    4.5870 hc        1 MOL      0.016811
     95 H40        -3.7870   -3.9310    4.9620 hc        1 MOL      0.016811
     96 H41        -4.6140   -1.3230    5.1770 hc        1 MOL      0.004488
     97 H42        -4.1200   -0.3150    3.8720 hc        1 MOL      0.004488
     98 H43        -4.9310   -1.8760    3.5300 hc        1 MOL      0.004488
     99 H44        -3.1680   -2.3600    6.8280 hc        1 MOL      0.107434
    100 H45        -2.4560   -4.0550    6.8400 hc        1 MOL      0.107434
    101 H46        -1.4840   -2.5590    6.6350 hc        1 MOL      0.107434
    102 N10        -3.2660   -1.0880    0.7030 n         1 MOL     -0.421708
    103 C32        -4.3670   -2.0110    0.3430 c3        1 MOL      0.093344
    104 C33        -5.3730   -1.1150   -0.4280 c         1 MOL      0.708570
    105 O16        -4.9510   -0.1090   -1.0390 o         1 MOL     -0.596701
    106 C34        -3.8840   -3.0650   -0.6230 c3        1 MOL     -0.266137
    107 C35        -5.0180   -4.0550   -1.0510 c         1 MOL      0.667611
    108 O17        -4.8180   -4.9060   -1.9490 o         1 MOL     -0.691834
    109 O18        -5.9960   -4.0910   -0.2310 o         1 MOL     -0.691834
    110 H47        -3.2200   -0.2540    0.1420 hn        1 MOL      0.277102
    111 H48        -4.8060   -2.4020    1.2690 h1        1 MOL      0.077588
    112 H49        -3.1320   -3.6820   -0.1340 hc        1 MOL      0.064596
    113 H50        -3.3530   -2.5630   -1.4300 hc        1 MOL      0.064596
    114 N11        -6.6550   -1.4060   -0.3850 n         1 MOL     -0.740809
    115 C36        -7.7000   -0.5380   -1.0070 c3        1 MOL      0.655625
    116 C37        -8.7340   -0.0930    0.0890 c         1 MOL      0.222249
    117 O19        -8.9510   -0.7650    1.1440 o         1 MOL     -0.485053
    118 C38        -8.2390   -1.4570   -2.1500 c3        1 MOL     -0.229694
    119 C39        -9.6020   -1.0910   -2.8430 ca        1 MOL      0.093277
    120 C40       -10.7570   -1.3370   -2.1400 ca        1 MOL     -0.144517
    121 C41        -9.6130   -0.3930   -4.0820 ca        1 MOL     -0.144517
    122 C42       -11.9890   -1.0920   -2.8260 ca        1 MOL     -0.120168
    123 C43       -10.8670   -0.1020   -4.7040 ca        1 MOL     -0.120168
    124 C44       -12.0080   -0.5020   -4.0690 ca        1 MOL     -0.134717
    125 H51        -6.9970   -2.1780    0.1720 hn        1 MOL      0.321634
    126 H52        -7.2120    0.3590   -1.3910 h1        1 MOL     -0.124609
    127 H53        -8.5020   -2.4640   -1.8220 hc        1 MOL      0.083105
    128 H54        -7.4940   -1.5630   -2.9440 hc        1 MOL      0.083105
    129 H55       -10.8180   -1.7910   -1.1650 ha        1 MOL      0.117016
    130 H56        -8.6690   -0.1440   -4.5290 ha        1 MOL      0.117016
    131 H57       -12.9070   -1.3930   -2.3490 ha        1 MOL      0.102992
    132 H58       -10.9560    0.3970   -5.6580 ha        1 MOL      0.102992
    133 H59       -12.9310   -0.3590   -4.6090 ha        1 MOL      0.094031
    134 N12        -9.1840    1.1890   -0.0910 n         1 MOL      0.006380
    135 C45        -9.0090    2.0580   -1.2510 c3        1 MOL     -0.021063
    136 C46        -7.7920    3.0670   -1.2670 c         1 MOL      0.590954
    137 O20        -7.6100    3.6450   -2.3280 o         1 MOL     -0.544841
    138 C47       -10.3510    2.8740   -1.2690 c3        1 MOL     -0.121072
    139 C48       -10.5220    3.0300    0.2270 c3        1 MOL     -0.071214
    140 C49       -10.0610    1.7590    0.8440 c3        1 MOL     -0.086165
    141 H60        -9.0140    1.4150   -2.1310 h1        1 MOL      0.016011
    142 H61       -10.3420    3.7700   -1.8990 hc        1 MOL      0.059118
    143 H62       -11.1400    2.2420   -1.6780 hc        1 MOL      0.059118
    144 H63        -9.8820    3.7880    0.6910 hc        1 MOL      0.042077
    145 H64       -11.5180    3.3550    0.5310 hc        1 MOL      0.042077
    146 H65        -9.5880    1.9640    1.8100 h1        1 MOL      0.059336
    147 H66       -10.9340    1.1230    0.9980 h1        1 MOL      0.059336
    148 N13        -7.0330    3.1790   -0.2010 n         1 MOL     -0.505034
    149 C50        -5.7530    3.8580   -0.1580 c3        1 MOL      0.120120
    150 C51        -5.9090    5.2820   -0.6580 c         1 MOL      0.569178
    151 O21        -6.3850    6.1290    0.0600 o         1 MOL     -0.586493
    152 C52        -5.2260    3.8550    1.2820 c3        1 MOL     -0.125863
    153 C53        -4.8430    2.4830    1.7940 c3        1 MOL      0.097456
    154 C54        -4.4100    2.4820    3.2660 c         1 MOL      0.725062
    155 O22        -3.1970    2.7920    3.4870 o         1 MOL     -0.740841
    156 O23        -5.1790    2.2660    4.1870 o         1 MOL     -0.740841
    157 H67        -7.2600    2.6020    0.5910 hn        1 MOL      0.335016
    158 H68        -4.9910    3.3350   -0.7380 h1        1 MOL      0.103652
    159 H69        -6.0020    4.2390    1.9400 hc        1 MOL      0.035024
    160 H70        -4.3550    4.5180    1.2960 hc        1 MOL      0.035024
    161 H71        -3.9800    2.1250    1.2420 hc        1 MOL     -0.088464
    162 H72        -5.7040    1.8400    1.6500 hc        1 MOL     -0.088464
    163 N14        -5.3860    5.6630   -1.8460 n         1 MOL     -0.490677
    164 C55        -4.7800    4.8650   -2.9210 c3        1 MOL      0.017211
    165 H73        -4.1290    4.1060   -2.4860 h1        1 MOL      0.035072
    166 H74        -5.5650    4.3810   -3.5020 h1        1 MOL      0.035072
    167 H75        -4.1950    5.5160   -3.5710 h1        1 MOL      0.035072
    168 H76        -5.6290    6.5770   -2.1910 hn        1 MOL      0.304158
    169 Ca1         3.4700    0.5970    0.9070 Ca        1 MOL      1.813112
    170 O24         1.8530    2.4480    2.2520 oh        1 MOL     -0.838213
    171 H77         1.2000    2.2700    2.9240 ho        1 MOL      0.417598
    172 H78         1.6140    3.3040    1.9070 ho        1 MOL      0.417598
    173 O25         4.4660    2.0110    2.8180 oh        1 MOL     -0.838213
    174 H79         4.4490    1.8350    3.7530 ho        1 MOL      0.417598
    175 H80         4.3440    2.9660    2.7470 ho        1 MOL      0.417598
    176 O26         2.3520    0.1720   -1.3910 oh        1 MOL     -0.838213
    177 H81         2.3530    0.1480   -2.3470 ho        1 MOL      0.417598
    178 H82         1.5500   -0.2880   -1.1340 ho        1 MOL      0.417598
    179 O27         0.7310    0.1680    0.9440 oh        1 MOL     -0.838213
    180 H83         0.1250   -0.3950    0.4540 ho        1 MOL      0.417598
    181 H84         0.1670    0.6770    1.5120 ho        1 MOL      0.417598
    182 O28         3.1300   -0.2810    3.7820 oh        1 MOL     -0.838213
    183 H85         2.3940   -0.8380    4.0290 ho        1 MOL      0.417598
    184 H86         3.6200   -0.1580    4.6020 ho        1 MOL      0.417598
@<TRIPOS>BOND
     1    1    2 1   
     2    1    4 1   
     3    1    5 1   
     4    1    6 1   
     5    2    3 2   
     6    2    7 1   
     7    7    8 1   
     8    7   15 1   
     9    8    9 1   
    10    8   11 1   
    11    8   16 1   
    12    9   10 2   
    13    9   19 1   
    14   11   12 1   
    15   11   17 1   
    16   11   18 1   
    17   12   13 1   
    18   12   14 1   
    19   19   20 1   
    20   19   24 1   
    21   20   21 1   
    22   20   23 1   
    23   20   25 1   
    24   21   22 2   
    25   21   29 1   
    26   23   26 1   
    27   23   27 1   
    28   23   28 1   
    29   29   30 1   
    30   29   37 1   
    31   30   31 1   
    32   30   33 1   
    33   30   38 1   
    34   31   32 2   
    35   31   41 1   
    36   33   34 1   
    37   33   39 1   
    38   33   40 1   
    39   34   35 1   
    40   34   36 1   
    41   41   42 1   
    42   41   45 1   
    43   42   43 1   
    44   42   46 1   
    45   42   47 1   
    46   43   44 2   
    47   43   48 1   
    48   48   49 1   
    49   48   56 1   
    50   49   50 1   
    51   49   52 1   
    52   49   57 1   
    53   50   51 2   
    54   50   62 1   
    55   52   53 1   
    56   52   58 1   
    57   52   59 1   
    58   53   54 1   
    59   53   55 2   
    60   54   60 1   
    61   54   61 1   
    62   62   63 1   
    63   62   66 1   
    64   63   64 1   
    65   63   67 1   
    66   63   68 1   
    67   64   65 2   
    68   64   69 1   
    69   69   70 1   
    70   69   76 1   
    71   70   71 1   
    72   70   73 1   
    73   70   77 1   
    74   71   72 2   
    75   71   83 1   
    76   73   74 1   
    77   73   75 1   
    78   73   78 1   
    79   74   80 1   
    80   74   81 1   
    81   74   82 1   
    82   75   79 1   
    83   83   84 1   
    84   83   91 1   
    85   84   85 1   
    86   84   87 1   
    87   84   92 1   
    88   85   86 2   
    89   85  102 1   
    90   87   88 1   
    91   87   89 1   
    92   87   93 1   
    93   88   90 1   
    94   88   94 1   
    95   88   95 1   
    96   89   96 1   
    97   89   97 1   
    98   89   98 1   
    99   90   99 1   
   100   90  100 1   
   101   90  101 1   
   102  102  103 1   
   103  102  110 1   
   104  103  104 1   
   105  103  106 1   
   106  103  111 1   
   107  104  105 2   
   108  104  114 1   
   109  106  107 1   
   110  106  112 1   
   111  106  113 1   
   112  107  108 1   
   113  107  109 1   
   114  114  115 1   
   115  114  125 1   
   116  115  116 1   
   117  115  118 1   
   118  115  126 1   
   119  116  117 2   
   120  116  134 1   
   121  118  119 1   
   122  118  127 1   
   123  118  128 1   
   124  119  120 ar  
   125  119  121 ar  
   126  120  122 ar  
   127  120  129 1   
   128  121  123 ar  
   129  121  130 1   
   130  122  124 ar  
   131  122  131 1   
   132  123  124 ar  
   133  123  132 1   
   134  124  133 1   
   135  134  135 1   
   136  134  140 1   
   137  135  136 1   
   138  135  138 1   
   139  135  141 1   
   140  136  137 2   
   141  136  148 1   
   142  138  139 1   
   143  138  142 1   
   144  138  143 1   
   145  139  140 1   
   146  139  144 1   
   147  139  145 1   
   148  140  146 1   
   149  140  147 1   
   150  148  149 1   
   151  148  157 1   
   152  149  150 1   
   153  149  152 1   
   154  149  158 1   
   155  150  151 2   
   156  150  163 1   
   157  152  153 1   
   158  152  159 1   
   159  152  160 1   
   160  153  154 1   
   161  153  161 1   
   162  153  162 1   
   163  154  155 1   
   164  154  156 1   
   165  163  164 1   
   166  163  168 1   
   167  164  165 1   
   168  164  166 1   
   169  164  167 1   
   170  170  171 1   
   171  170  172 1   
   172  173  174 1   
   173  173  175 1   
   174  176  177 1   
   175  176  178 1   
   176  179  180 1   
   177  179  181 1   
   178  182  183 1   
   179  182  184 1   
@<TRIPOS>SUBSTRUCTURE
     1 MOL         1 TEMP              0 ****  ****    0 ROOT
