@<TRIPOS>MOLECULE
MOL
  195   189     1     0     0
SMALL
resp


@<TRIPOS>ATOM
      1 C1          4.4320   -3.9690   -3.7700 c3        1 MOL     -0.239424
      2 C2          3.7350   -3.7240   -2.4590 c         1 MOL      0.513053
      3 O1          2.8140   -2.9030   -2.4560 o         1 MOL     -0.428042
      4 H1          5.5040   -4.0630   -3.5980 hc        1 MOL      0.066381
      5 H2          4.0540   -4.8890   -4.2170 hc        1 MOL      0.066381
      6 H3          4.2450   -3.1320   -4.4440 hc        1 MOL      0.066381
      7 N1          4.1820   -4.2450   -1.2910 n         1 MOL     -0.447853
      8 C3          3.6860   -3.8880    0.0130 c3        1 MOL      0.084405
      9 C4          2.1170   -3.9920    0.1400 c         1 MOL      0.450589
     10 O2          1.4590   -3.2430    0.8760 o         1 MOL     -0.475010
     11 C5          4.2750   -2.4960    0.4560 c3        1 MOL     -0.188082
     12 C6          5.7770   -2.4360    0.3850 c         1 MOL      0.472286
     13 O3          6.4560   -2.5450    1.4140 o         1 MOL     -0.587450
     14 O4          6.3470   -2.5480   -0.7510 o         1 MOL     -0.587450
     15 H4          5.1140   -4.6360   -1.3200 hn        1 MOL      0.212916
     16 H5          3.9210   -4.6370    0.7640 h1        1 MOL      0.129749
     17 H6          3.8330   -2.2290    1.4130 hc        1 MOL      0.098154
     18 H7          3.9380   -1.7910   -0.3090 hc        1 MOL      0.098154
     19 N2          1.5470   -5.0250   -0.4180 n         1 MOL     -0.509470
     20 C7          0.0980   -5.0930   -0.5970 c3        1 MOL      0.043690
     21 C8         -0.6240   -5.5090    0.7490 c         1 MOL      0.709844
     22 O5         -0.0050   -6.1410    1.5720 o         1 MOL     -0.576166
     23 C9         -0.3550   -5.9670   -1.7940 c3        1 MOL     -0.006837
     24 C10        -0.3060   -7.4570   -1.4470 c3        1 MOL      0.027710
     25 C11         0.6230   -5.6870   -3.0270 c3        1 MOL     -0.342137
     26 C12        -1.6310   -7.9700   -0.8610 c3        1 MOL     -0.058162
     27 H8          2.0950   -5.7850   -0.7820 hn        1 MOL      0.264610
     28 H9         -0.0990   -4.0400   -0.7860 h1        1 MOL      0.109226
     29 H10        -1.4050   -5.7480   -1.9550 hc        1 MOL      0.100112
     30 H11         0.4960   -7.6910   -0.7480 hc        1 MOL     -0.000522
     31 H12         0.0050   -8.0310   -2.3250 hc        1 MOL     -0.000522
     32 H13         0.7740   -4.6130   -3.1550 hc        1 MOL      0.084237
     33 H14         1.6500   -6.0240   -2.8930 hc        1 MOL      0.084237
     34 H15         0.1730   -6.1190   -3.9300 hc        1 MOL      0.084237
     35 H16        -2.4930   -7.5390   -1.3630 hc        1 MOL      0.006160
     36 H17        -1.5730   -9.0430   -1.0510 hc        1 MOL      0.006160
     37 H18        -1.8410   -7.7020    0.1730 hc        1 MOL      0.006160
     38 N3         -1.9200   -5.2120    1.0030 n         1 MOL     -0.715071
     39 C13        -2.6110   -4.0700    0.4160 c3        1 MOL     -0.061236
     40 C14        -3.1310   -3.0870    1.4370 c         1 MOL      0.415566
     41 O6         -3.5910   -2.0210    1.0500 o         1 MOL     -0.456269
     42 C15        -3.8190   -4.6380   -0.4220 c3        1 MOL     -0.138567
     43 C16        -4.7190   -5.6900    0.2830 c         1 MOL      0.751786
     44 O7         -5.1800   -5.5070    1.4410 o         1 MOL     -0.708311
     45 O8         -5.1330   -6.6510   -0.4320 o         1 MOL     -0.708311
     46 H19        -2.3300   -5.6800    1.7970 hn        1 MOL      0.373534
     47 H20        -1.9890   -3.3920   -0.1600 h1        1 MOL      0.110603
     48 H21        -3.4170   -5.0720   -1.3380 hc        1 MOL      0.012130
     49 H22        -4.4310   -3.7860   -0.7030 hc        1 MOL      0.012130
     50 N4         -3.1160   -3.4300    2.7280 n         1 MOL     -0.147345
     51 C17        -3.5320   -2.7190    3.9210 c3        1 MOL     -0.390828
     52 C18        -5.1000   -2.6880    3.9990 c         1 MOL      0.658806
     53 O9         -5.7480   -3.2640    4.8870 o         1 MOL     -0.598000
     54 H23        -2.7070   -4.3320    2.9410 hn        1 MOL      0.255565
     55 H24        -3.1610   -1.7010    3.8540 h1        1 MOL      0.147743
     56 H25        -3.1200   -3.2000    4.8170 h1        1 MOL      0.147743
     57 N5         -5.6840   -1.9970    3.0150 n         1 MOL     -0.317021
     58 C19        -7.1310   -1.6200    2.9670 c3        1 MOL     -0.050863
     59 C20        -7.7270   -1.6300    1.5460 c         1 MOL      0.374423
     60 O10        -8.9040   -1.3920    1.3270 o         1 MOL     -0.545264
     61 C21        -7.2210   -0.1060    3.4230 c3        1 MOL     -0.151546
     62 C22        -6.0560    0.7550    2.9680 c         1 MOL      0.671431
     63 O11        -5.6760    1.6740    3.7520 o         1 MOL     -0.664167
     64 O12        -5.6510    0.7250    1.7360 o         1 MOL     -0.664167
     65 H26        -5.0680   -1.6020    2.3160 hn        1 MOL      0.195021
     66 H27        -7.7120   -2.3470    3.5320 h1        1 MOL      0.130285
     67 H28        -7.3140   -0.0530    4.5130 hc        1 MOL      0.029775
     68 H29        -8.1580    0.2950    3.0420 hc        1 MOL      0.029775
     69 N6         -6.9680   -1.8420    0.5050 n         1 MOL      0.003824
     70 C23        -7.2370   -1.7170   -0.8970 c3        1 MOL     -0.179168
     71 C24        -7.6400   -0.3570   -1.3320 c         1 MOL      0.592017
     72 O13        -8.0130   -0.1160   -2.4550 o         1 MOL     -0.606923
     73 H30        -6.0220   -2.1600    0.7200 hn        1 MOL      0.114459
     74 H31        -7.9040   -2.4910   -1.2670 h1        1 MOL      0.088012
     75 H32        -6.3220   -1.8620   -1.4650 h1        1 MOL      0.088012
     76 N7         -7.4510    0.6310   -0.4460 n         1 MOL     -0.149934
     77 C25        -7.6130    2.0530   -0.5670 c3        1 MOL     -0.085779
     78 C26        -6.7660    2.7860   -1.6140 c         1 MOL      0.265058
     79 O14        -6.7190    4.0340   -1.6020 o         1 MOL     -0.498444
     80 C27        -9.0790    2.4810   -0.6610 c3        1 MOL      0.330737
     81 C28        -9.9360    1.9990    0.4860 c3        1 MOL     -0.179290
     82 C29       -11.4470    2.1130    0.2630 c         1 MOL      0.641236
     83 N8        -12.1660    2.8650    1.0220 n         1 MOL     -0.751251
     84 O15       -12.0120    1.7580   -0.7250 o         1 MOL     -0.570730
     85 H33        -7.0930    0.3970    0.4650 hn        1 MOL      0.074486
     86 H34        -7.3210    2.4780    0.3900 h1        1 MOL      0.172865
     87 H35        -9.5370    2.1020   -1.5680 hc        1 MOL     -0.066528
     88 H36        -9.0450    3.5760   -0.6990 hc        1 MOL     -0.066528
     89 H37        -9.6540    2.6940    1.2750 hc        1 MOL      0.019889
     90 H38        -9.7480    0.9620    0.7410 hc        1 MOL      0.019889
     91 H39       -11.7400    3.3580    1.8010 hn        1 MOL      0.329205
     92 H40       -13.1560    2.8470    0.8530 hn        1 MOL      0.329205
     93 N9         -5.9920    2.0970   -2.4490 n         1 MOL     -0.096627
     94 C30        -5.1470    2.6000   -3.5380 c3        1 MOL     -0.056608
     95 C31        -3.6640    2.5920   -3.2870 c         1 MOL      0.643575
     96 O16        -2.9820    3.4610   -3.8330 o         1 MOL     -0.589573
     97 C32        -5.4530    1.9490   -4.8900 c3        1 MOL      0.391745
     98 C33        -5.4630    0.3820   -4.7660 c3        1 MOL     -0.538204
     99 C34        -6.7840    2.3670   -5.5420 c3        1 MOL     -0.538204
    100 H41        -6.2140    1.1040   -2.4280 hn        1 MOL      0.157885
    101 H42        -5.3750    3.6650   -3.6060 h1        1 MOL      0.056964
    102 H43        -4.6930    2.2970   -5.5810 hc        1 MOL     -0.038940
    103 H44        -5.3710    0.0190   -5.7950 hc        1 MOL      0.126496
    104 H45        -4.7220   -0.0030   -4.0730 hc        1 MOL      0.126496
    105 H46        -6.3790   -0.0150   -4.3350 hc        1 MOL      0.126496
    106 H47        -7.6330    2.0700   -4.9300 hc        1 MOL      0.126496
    107 H48        -6.5960    3.4180   -5.7430 hc        1 MOL      0.126496
    108 H49        -6.9090    1.9370   -6.5400 hc        1 MOL      0.126496
    109 N10        -3.1540    1.6150   -2.5990 n         1 MOL     -0.593746
    110 C35        -1.7590    1.5990   -2.1680 c3        1 MOL      0.237534
    111 C36        -1.4970    2.4220   -0.9250 c         1 MOL      0.558098
    112 O17        -2.4000    3.1130   -0.3770 o         1 MOL     -0.494712
    113 C37        -1.4420    0.0910   -1.9930 c3        1 MOL     -0.144550
    114 C38        -0.0290   -0.3650   -1.9280 c         1 MOL      0.637384
    115 N11         0.1440   -1.5510   -2.4600 n         1 MOL     -0.744463
    116 O18         0.9340    0.2830   -1.5810 o         1 MOL     -0.506660
    117 H50        -3.8140    1.0810   -2.0420 hn        1 MOL      0.261747
    118 H51        -1.1850    1.9870   -3.0000 h1        1 MOL      0.053620
    119 H52        -1.9410   -0.3570   -2.8540 hc        1 MOL      0.049506
    120 H53        -1.9490   -0.3330   -1.1300 hc        1 MOL      0.049506
    121 H54        -0.6340   -2.1770   -2.6210 hn        1 MOL      0.310220
    122 H55         1.0500   -1.9950   -2.4210 hn        1 MOL      0.310220
    123 N12        -0.1870    2.6450   -0.6200 n         1 MOL     -0.672123
    124 C39         0.4080    3.3790    0.4800 c3        1 MOL      0.351035
    125 C40         1.8030    3.8140    0.0650 c         1 MOL      0.645834
    126 O19         2.5520    3.0310   -0.4840 o         1 MOL     -0.603019
    127 C41         0.3720    2.7110    1.8470 c3        1 MOL     -0.231754
    128 C42         0.8230    3.7260    2.9240 ca        1 MOL      0.076083
    129 C43         2.1490    3.8240    3.3710 ca        1 MOL     -0.176698
    130 C44        -0.2110    4.4210    3.5830 ca        1 MOL     -0.176698
    131 C45         2.4180    4.7740    4.3870 ca        1 MOL     -0.269385
    132 C46         0.0770    5.3780    4.5640 ca        1 MOL     -0.269385
    133 C47         1.4180    5.5690    4.9870 ca        1 MOL      0.314097
    134 O20         1.7000    6.5350    5.9040 oh        1 MOL     -0.484918
    135 H56         0.5400    2.1310   -1.0890 hn        1 MOL      0.281668
    136 H57        -0.1170    4.3170    0.6410 h1        1 MOL     -0.011699
    137 H58         1.0450    1.8560    1.7710 hc        1 MOL      0.091600
    138 H59        -0.6520    2.4350    2.1110 hc        1 MOL      0.091600
    139 H60         2.8960    3.1600    2.9710 ha        1 MOL      0.165270
    140 H61        -1.2170    4.2150    3.2700 ha        1 MOL      0.165270
    141 H62         3.4540    4.9100    4.6610 ha        1 MOL      0.148918
    142 H63        -0.6860    6.0500    4.9230 ha        1 MOL      0.148918
    143 H64         2.6290    6.4230    6.1030 ho        1 MOL      0.346382
    144 N13         2.3080    5.0350    0.3450 n         1 MOL     -0.655874
    145 C48         3.7060    5.4660    0.0000 c3        1 MOL      0.455261
    146 C49         4.6080    5.3530    1.2130 c         1 MOL      0.513652
    147 O21         4.4190    6.1350    2.1630 o         1 MOL     -0.555226
    148 C50         3.6310    6.8630   -0.6340 c3        1 MOL     -0.016404
    149 C51         4.7840    7.1020   -1.6770 c3        1 MOL     -0.090999
    150 C52         5.0420    8.5640   -2.0770 c         1 MOL      0.671049
    151 O22         5.5600    9.3320   -1.2490 o         1 MOL     -0.658777
    152 O23         4.9170    8.8770   -3.2880 o         1 MOL     -0.658777
    153 H65         1.7260    5.7940    0.6680 hn        1 MOL      0.293833
    154 H66         3.9570    4.7950   -0.8310 h1        1 MOL     -0.077058
    155 H67         3.7820    7.6220    0.1410 hc        1 MOL     -0.016474
    156 H68         2.6570    7.0340   -1.0840 hc        1 MOL     -0.016474
    157 H69         4.4610    6.6140   -2.6010 hc        1 MOL      0.009882
    158 H70         5.6980    6.6610   -1.2900 hc        1 MOL      0.009882
    159 N14         5.5710    4.4230    1.2590 n         1 MOL     -0.517669
    160 C53         5.7370    3.2310    0.4220 c3        1 MOL     -0.061156
    161 C54         6.2080    3.5800   -1.0400 c         1 MOL      0.598608
    162 O24         6.9370    4.4870   -1.1810 o         1 MOL     -0.553598
    163 C55         6.7100    2.3190    1.0700 c3        1 MOL      0.637918
    164 C56         6.9340    0.8920    0.5300 c3        1 MOL     -0.564857
    165 C57         8.1970    0.2370    1.0630 c         1 MOL      0.832651
    166 O25         8.7710    0.6750    2.0980 o         1 MOL     -0.712571
    167 O26         8.6520   -0.7180    0.3510 o         1 MOL     -0.712571
    168 H71         6.2070    4.4460    2.0490 hn        1 MOL      0.258379
    169 H72         4.7890    2.7120    0.4640 h1        1 MOL      0.031115
    170 H73         6.3920    2.1440    2.0980 hc        1 MOL     -0.121290
    171 H74         7.6890    2.7860    1.0950 hc        1 MOL     -0.121290
    172 H75         7.0840    1.0370   -0.5370 hc        1 MOL      0.040740
    173 H76         6.0590    0.2500    0.5910 hc        1 MOL      0.040740
    174 N15         5.9050    2.7280   -2.0000 n         1 MOL     -0.221198
    175 C58         6.3690    2.6970   -3.4040 c3        1 MOL     -0.351309
    176 H77         7.4500    2.5620   -3.4250 h1        1 MOL      0.126089
    177 H78         5.8900    1.8700   -3.9290 h1        1 MOL      0.126089
    178 H79         6.1120    3.6360   -3.8930 h1        1 MOL      0.126089
    179 H80         5.3670    1.9290   -1.6810 hn        1 MOL      0.250410
    180 Ca1         8.5850   -3.2780    0.1820 Ca        1 MOL      1.719512
    181 O27        11.2930   -2.8580   -0.0410 oh        1 MOL     -0.851466
    182 H81        11.7550   -3.5920   -0.4500 ho        1 MOL      0.388194
    183 H82        11.9630   -2.1860    0.0760 ho        1 MOL      0.388194
    184 O28         9.4720   -2.8650    2.7360 oh        1 MOL     -0.851466
    185 H83         9.0860   -2.3570    3.4560 ho        1 MOL      0.388194
    186 H84        10.4150   -2.8260    2.8930 ho        1 MOL      0.388194
    187 O29        10.2760   -5.5430   -0.3940 oh        1 MOL     -0.851466
    188 H85        10.2390   -6.4960   -0.3050 ho        1 MOL      0.388194
    189 H86        11.0470   -5.3880   -0.9480 ho        1 MOL      0.388194
    190 O30         9.0320   -2.9230   -2.3340 oh        1 MOL     -0.851466
    191 H87         9.4930   -2.1320   -2.6020 ho        1 MOL      0.388194
    192 H88         8.4740   -3.1340   -3.0800 ho        1 MOL      0.388194
    193 O31         7.9290   -5.3080    1.6820 oh        1 MOL     -0.851466
    194 H89         8.7830   -5.6670    1.9260 ho        1 MOL      0.388194
    195 H90         7.5110   -5.1000    2.5210 ho        1 MOL      0.388194
@<TRIPOS>BOND
     1    1    2 1   
     2    1    4 1   
     3    1    5 1   
     4    1    6 1   
     5    2    3 2   
     6    2    7 1   
     7    7    8 1   
     8    7   15 1   
     9    8    9 1   
    10    8   11 1   
    11    8   16 1   
    12    9   10 2   
    13    9   19 1   
    14   11   12 1   
    15   11   17 1   
    16   11   18 1   
    17   12   13 1   
    18   12   14 1   
    19   19   20 1   
    20   19   27 1   
    21   20   21 1   
    22   20   23 1   
    23   20   28 1   
    24   21   22 2   
    25   21   38 1   
    26   23   24 1   
    27   23   25 1   
    28   23   29 1   
    29   24   26 1   
    30   24   30 1   
    31   24   31 1   
    32   25   32 1   
    33   25   33 1   
    34   25   34 1   
    35   26   35 1   
    36   26   36 1   
    37   26   37 1   
    38   38   39 1   
    39   38   46 1   
    40   39   40 1   
    41   39   42 1   
    42   39   47 1   
    43   40   41 2   
    44   40   50 1   
    45   42   43 1   
    46   42   48 1   
    47   42   49 1   
    48   43   44 1   
    49   43   45 1   
    50   50   51 1   
    51   50   54 1   
    52   51   52 1   
    53   51   55 1   
    54   51   56 1   
    55   52   53 2   
    56   52   57 1   
    57   57   58 1   
    58   57   65 1   
    59   58   59 1   
    60   58   61 1   
    61   58   66 1   
    62   59   60 2   
    63   59   69 1   
    64   61   62 1   
    65   61   67 1   
    66   61   68 1   
    67   62   63 1   
    68   62   64 1   
    69   69   70 1   
    70   69   73 1   
    71   70   71 1   
    72   70   74 1   
    73   70   75 1   
    74   71   72 2   
    75   71   76 1   
    76   76   77 1   
    77   76   85 1   
    78   77   78 1   
    79   77   80 1   
    80   77   86 1   
    81   78   79 2   
    82   78   93 1   
    83   80   81 1   
    84   80   87 1   
    85   80   88 1   
    86   81   82 1   
    87   81   89 1   
    88   81   90 1   
    89   82   83 1   
    90   82   84 2   
    91   83   91 1   
    92   83   92 1   
    93   93   94 1   
    94   93  100 1   
    95   94   95 1   
    96   94   97 1   
    97   94  101 1   
    98   95   96 2   
    99   95  109 1   
   100   97   98 1   
   101   97   99 1   
   102   97  102 1   
   103   98  103 1   
   104   98  104 1   
   105   98  105 1   
   106   99  106 1   
   107   99  107 1   
   108   99  108 1   
   109  109  110 1   
   110  109  117 1   
   111  110  111 1   
   112  110  113 1   
   113  110  118 1   
   114  111  112 2   
   115  111  123 1   
   116  113  114 1   
   117  113  119 1   
   118  113  120 1   
   119  114  115 1   
   120  114  116 2   
   121  115  121 1   
   122  115  122 1   
   123  123  124 1   
   124  123  135 1   
   125  124  125 1   
   126  124  127 1   
   127  124  136 1   
   128  125  126 2   
   129  125  144 1   
   130  127  128 1   
   131  127  137 1   
   132  127  138 1   
   133  128  129 ar  
   134  128  130 ar  
   135  129  131 ar  
   136  129  139 1   
   137  130  132 ar  
   138  130  140 1   
   139  131  133 ar  
   140  131  141 1   
   141  132  133 ar  
   142  132  142 1   
   143  133  134 1   
   144  134  143 1   
   145  144  145 1   
   146  144  153 1   
   147  145  146 1   
   148  145  148 1   
   149  145  154 1   
   150  146  147 2   
   151  146  159 1   
   152  148  149 1   
   153  148  155 1   
   154  148  156 1   
   155  149  150 1   
   156  149  157 1   
   157  149  158 1   
   158  150  151 1   
   159  150  152 1   
   160  159  160 1   
   161  159  168 1   
   162  160  161 1   
   163  160  163 1   
   164  160  169 1   
   165  161  162 2   
   166  161  174 1   
   167  163  164 1   
   168  163  170 1   
   169  163  171 1   
   170  164  165 1   
   171  164  172 1   
   172  164  173 1   
   173  165  166 1   
   174  165  167 1   
   175  174  175 1   
   176  174  179 1   
   177  175  176 1   
   178  175  177 1   
   179  175  178 1   
   180  181  182 1   
   181  181  183 1   
   182  184  185 1   
   183  184  186 1   
   184  187  188 1   
   185  187  189 1   
   186  190  191 1   
   187  190  192 1   
   188  193  194 1   
   189  193  195 1   
@<TRIPOS>SUBSTRUCTURE
     1 MOL         1 TEMP              0 ****  ****    0 ROOT
