@<TRIPOS>MOLECULE
MOL
  191   184     1     0     0
SMALL
resp


@<TRIPOS>ATOM
      1 C1          4.8880    0.7380    3.5010 c3        1 MOL     -0.385128
      2 C2          5.7050    0.8730    2.1550 c         1 MOL      0.609374
      3 O1          5.1890    0.8770    1.0560 o         1 MOL     -0.493646
      4 H1          5.4940    0.2170    4.2420 hc        1 MOL      0.091732
      5 H2          4.6340    1.7310    3.8740 hc        1 MOL      0.091732
      6 H3          3.9740    0.1740    3.3180 hc        1 MOL      0.091732
      7 N1          6.9430    1.0170    2.3590 n         1 MOL     -0.483004
      8 C3          7.9620    1.1950    1.2710 c3        1 MOL     -0.148789
      9 C4          7.7090    0.1980    0.0950 c         1 MOL      0.339123
     10 O2          7.5510    0.5840   -1.0410 o         1 MOL     -0.389703
     11 C5          8.0240    2.6930    0.8390 c3        1 MOL     -0.091469
     12 C6          9.1910    3.1170   -0.1000 c         1 MOL      0.542421
     13 O3          9.9200    2.1610   -0.4860 o         1 MOL     -0.653191
     14 O4          9.3310    4.3260   -0.3450 o         1 MOL     -0.653191
     15 H4          7.2320    1.1770    3.3180 hn        1 MOL      0.328134
     16 H5          8.9280    0.9970    1.7420 h1        1 MOL      0.086110
     17 H6          7.9280    3.3590    1.7020 hc        1 MOL      0.110124
     18 H7          7.1530    2.8770    0.2120 hc        1 MOL      0.110124
     19 N2          7.7910   -1.0950    0.4150 n         1 MOL     -0.257330
     20 C7          7.5840   -2.2000   -0.5550 c3        1 MOL     -0.110116
     21 C8          6.0700   -2.4580   -0.8910 c         1 MOL      0.529608
     22 O5          5.7350   -3.2660   -1.7500 o         1 MOL     -0.613236
     23 C9          8.1650   -3.5510    0.0530 c3        1 MOL      0.061637
     24 C10         9.5740   -3.4400    0.5690 c3        1 MOL     -0.069519
     25 C11        10.4720   -2.8420   -0.4680 c3        1 MOL      0.192653
     26 C12        11.9460   -2.8750    0.0260 c3        1 MOL     -0.131618
     27 N3         12.6940   -1.7930   -0.7210 n4        1 MOL     -0.233304
     28 H8          7.7640   -1.3420    1.4000 hn        1 MOL      0.235638
     29 H9          8.0510   -1.9750   -1.5150 h1        1 MOL      0.120520
     30 H10         8.0680   -4.3950   -0.6280 hc        1 MOL      0.008225
     31 H11         7.5020   -3.7990    0.8870 hc        1 MOL      0.008225
     32 H12         9.9380   -4.4640    0.7150 hc        1 MOL     -0.001706
     33 H13         9.5340   -2.8620    1.4980 hc        1 MOL     -0.001706
     34 H14        10.1180   -1.8190   -0.5040 hc        1 MOL      0.002031
     35 H15        10.3190   -3.2530   -1.4750 hc        1 MOL      0.002031
     36 H16        12.3490   -3.8610   -0.2110 hx        1 MOL      0.110816
     37 H17        12.0320   -2.5950    1.0800 hx        1 MOL      0.110816
     38 H18        12.3330   -0.9040   -0.4050 hn        1 MOL      0.293660
     39 H19        13.6860   -1.8240   -0.5160 hn        1 MOL      0.293660
     40 H20        12.6370   -1.9290   -1.7210 hn        1 MOL      0.293660
     41 N4          5.1970   -1.7770   -0.2650 n         1 MOL     -0.282148
     42 C13         3.7630   -2.1800   -0.4520 c3        1 MOL      0.020426
     43 C14         3.1620   -1.7340   -1.8090 c         1 MOL      0.684299
     44 O6          3.1960   -0.5360   -2.1310 o         1 MOL     -0.534965
     45 C15         2.9970   -1.6880    0.7720 c3        1 MOL     -0.346906
     46 C16         1.5740   -2.3220    0.8050 c         1 MOL      0.826728
     47 O7          1.0700   -2.6910    1.9220 o         1 MOL     -0.761821
     48 O8          0.9190   -2.6180   -0.1960 o         1 MOL     -0.761821
     49 H21         5.4090   -0.9430    0.2580 hn        1 MOL      0.205002
     50 H22         3.6770   -3.2600   -0.3550 h1        1 MOL      0.025209
     51 H23         3.0110   -0.6030    0.7850 hc        1 MOL      0.102888
     52 H24         3.5940   -2.0190    1.6200 hc        1 MOL      0.102888
     53 N5          2.5700   -2.6630   -2.5340 n         1 MOL     -0.364510
     54 C17         1.9520   -2.4440   -3.8320 c3        1 MOL     -0.071219
     55 C18         0.6810   -1.4810   -3.8130 c         1 MOL      0.413718
     56 O9          0.2210   -1.0120   -4.8830 o         1 MOL     -0.545588
     57 H25         2.4320   -3.5660   -2.1180 hn        1 MOL      0.260049
     58 H26         1.5580   -3.3820   -4.2240 h1        1 MOL      0.082436
     59 H27         2.7280   -2.1000   -4.5160 h1        1 MOL      0.082436
     60 N6          0.0960   -1.2070   -2.6740 n         1 MOL     -0.238777
     61 C19        -0.8620   -0.0920   -2.4180 c3        1 MOL     -0.059516
     62 C20        -0.3060    1.2810   -2.6490 c         1 MOL      0.473620
     63 O10        -1.1160    2.1900   -2.8400 o         1 MOL     -0.539350
     64 C21        -1.6300   -0.3500   -1.0280 c3        1 MOL     -0.726986
     65 C22        -1.9940   -1.7830   -0.6850 c         1 MOL      0.744178
     66 N7         -2.3980   -2.6190   -1.6060 n         1 MOL     -0.661407
     67 O11        -1.9110   -2.1440    0.5010 o         1 MOL     -0.586414
     68 H28         0.5520   -1.6140   -1.8680 hn        1 MOL      0.207686
     69 H29        -1.5600   -0.2760   -3.2290 h1        1 MOL      0.104734
     70 H30        -2.5420    0.2320   -1.1500 hc        1 MOL      0.283304
     71 H31        -0.9110   -0.0070   -0.2780 hc        1 MOL      0.283304
     72 H32        -2.6760   -2.1770   -2.4770 hn        1 MOL      0.302626
     73 H33        -2.8220   -3.4640   -1.2640 hn        1 MOL      0.302626
     74 N8          1.0060    1.4450   -2.6230 n         1 MOL     -0.111131
     75 C23         1.6260    2.7760   -2.8330 c3        1 MOL     -0.137724
     76 C24         1.2720    3.7550   -1.6890 c         1 MOL      0.532315
     77 O12         1.3550    4.9570   -1.8860 o         1 MOL     -0.536034
     78 H34         1.6430    0.6590   -2.5520 hn        1 MOL      0.166565
     79 H35         1.1450    3.2670   -3.6710 h1        1 MOL      0.100666
     80 H36         2.6830    2.6490   -3.0770 h1        1 MOL      0.100666
     81 N9          0.9850    3.3410   -0.4660 n         1 MOL     -0.240270
     82 C25         0.2750    4.0720    0.6360 c3        1 MOL     -0.012990
     83 C26        -0.8770    3.1470    1.1330 c         1 MOL      0.615758
     84 O13        -0.7360    1.9580    1.3510 o         1 MOL     -0.523034
     85 C27         1.2040    4.4140    1.7900 c3        1 MOL     -0.131915
     86 C28         2.3950    5.3010    1.3680 ca        1 MOL      0.237744
     87 C29         3.7130    4.7690    1.4000 ca        1 MOL     -0.407927
     88 C30         2.1470    6.6820    1.1850 ca        1 MOL     -0.407927
     89 C31         4.7480    5.6180    1.0730 ca        1 MOL      0.018436
     90 C32         3.2490    7.5140    1.0240 ca        1 MOL      0.018436
     91 C33         4.5830    7.0660    1.0260 ca        1 MOL      0.106299
     92 O14         5.7180    7.8790    1.1160 oh        1 MOL     -0.409283
     93 H37         1.3370    2.4080   -0.3210 hn        1 MOL      0.177877
     94 H38        -0.1170    4.9990    0.2240 h1        1 MOL      0.067494
     95 H39         1.5720    3.5000    2.2600 hc        1 MOL      0.071003
     96 H40         0.6520    4.9180    2.5910 hc        1 MOL      0.071003
     97 H41         3.9110    3.7230    1.6110 ha        1 MOL      0.182148
     98 H42         1.1220    7.0400    1.1280 ha        1 MOL      0.182148
     99 H43         5.7710    5.2760    0.9950 ha        1 MOL      0.064636
    100 H44         3.0640    8.5790    1.0320 ha        1 MOL      0.064636
    101 H45         5.3380    8.7600    1.0880 ho        1 MOL      0.335375
    102 N10        -2.1210    3.6910    1.2140 n         1 MOL     -0.638653
    103 C34        -3.4140    2.9880    1.5380 c3        1 MOL      0.099322
    104 C35        -4.2690    3.0210    0.2850 c         1 MOL      0.764121
    105 O15        -4.9160    1.9900    0.0200 o         1 MOL     -0.594916
    106 C36        -4.0790    3.7960    2.7330 c3        1 MOL      0.030162
    107 C37        -3.1850    3.7580    3.9980 c3        1 MOL      0.067160
    108 C38        -5.3360    3.0500    3.1400 c3        1 MOL     -0.578878
    109 C39        -2.6690    2.4550    4.5510 c3        1 MOL     -0.061617
    110 H46        -2.1700    4.6890    1.0870 hn        1 MOL      0.278149
    111 H47        -3.2690    1.9630    1.8730 h1        1 MOL      0.099162
    112 H48        -4.3590    4.8330    2.5510 hc        1 MOL      0.004863
    113 H49        -3.6750    4.2230    4.8570 hc        1 MOL     -0.017053
    114 H50        -2.2760    4.3360    3.8460 hc        1 MOL     -0.017053
    115 H51        -5.7380    3.4450    4.0740 hc        1 MOL      0.162835
    116 H52        -6.0800    3.1960    2.3440 hc        1 MOL      0.162835
    117 H53        -5.1440    1.9890    3.2930 hc        1 MOL      0.162835
    118 H54        -1.8580    2.1400    3.8940 hc        1 MOL      0.028694
    119 H55        -2.2120    2.6640    5.5220 hc        1 MOL      0.028694
    120 H56        -3.4300    1.6910    4.7080 hc        1 MOL      0.028694
    121 N11        -4.4200    4.1760   -0.3970 n         1 MOL     -0.629236
    122 C40        -5.1740    4.2650   -1.6580 c3        1 MOL      0.209250
    123 C41        -6.6470    3.8680   -1.6290 c         1 MOL      0.198194
    124 O16        -7.2230    3.4250   -2.6620 o         1 MOL     -0.417959
    125 C42        -5.2310    5.7320   -2.0870 c3        1 MOL      0.127797
    126 O17        -3.9680    6.1950   -2.4960 oh        1 MOL     -0.556233
    127 H57        -3.9260    5.0320   -0.1620 hn        1 MOL      0.324815
    128 H58        -4.6860    3.5910   -2.3610 h1        1 MOL      0.127858
    129 H59        -5.5040    6.2060   -1.1390 h1        1 MOL      0.031743
    130 H60        -6.0070    5.9060   -2.8320 h1        1 MOL      0.031743
    131 H61        -3.9700    7.0750   -2.1250 ho        1 MOL      0.386925
    132 N12        -7.2170    3.9130   -0.3980 n         1 MOL     -0.326909
    133 C43        -8.5040    3.2160   -0.1290 c3        1 MOL      0.278480
    134 C44        -8.6180    1.7900   -0.6390 c         1 MOL      0.411057
    135 O18        -9.6760    1.3870   -1.1660 o         1 MOL     -0.521124
    136 C45        -9.6570    4.0930   -0.4870 c3        1 MOL     -0.394887
    137 H62        -6.8310    4.4050    0.3970 hn        1 MOL      0.263941
    138 H63        -8.5540    3.1490    0.9620 h1        1 MOL      0.003745
    139 H64       -10.6290    3.7400   -0.1470 hc        1 MOL      0.108854
    140 H65        -9.5630    5.1290   -0.1410 hc        1 MOL      0.108854
    141 H66        -9.7730    4.0470   -1.5760 hc        1 MOL      0.108854
    142 N13        -7.5230    1.0110   -0.6380 n         1 MOL     -0.415514
    143 C46        -7.3250   -0.2900   -1.3690 c3        1 MOL      0.543279
    144 C47        -6.8040   -1.3890   -0.3910 c         1 MOL      0.224342
    145 O19        -6.0680   -1.1430    0.5620 o         1 MOL     -0.406083
    146 C48        -6.2570   -0.0300   -2.4560 c3        1 MOL     -0.324908
    147 H67        -6.6530    1.2580   -0.2010 hn        1 MOL      0.140350
    148 H68        -8.2390   -0.6480   -1.8360 h1        1 MOL     -0.062384
    149 H69        -6.0950   -0.9700   -2.9730 hc        1 MOL      0.088520
    150 H70        -6.4620    0.8550   -3.0670 hc        1 MOL      0.088520
    151 H71        -5.3470    0.2490   -1.9270 hc        1 MOL      0.088520
    152 N14        -7.1570   -2.6560   -0.6300 n         1 MOL     -0.371245
    153 C49        -6.9630   -3.8170    0.3020 c3        1 MOL     -0.227131
    154 C50        -7.5580   -3.6310    1.7100 c         1 MOL      0.423050
    155 O20        -7.2060   -4.4340    2.6060 o         1 MOL     -0.509264
    156 C51        -5.5240   -4.3630    0.3080 c3        1 MOL      0.290490
    157 C52        -5.0290   -5.0930   -0.9240 c3        1 MOL      0.122489
    158 C53        -3.6690   -5.7370   -0.5940 c         1 MOL      0.395929
    159 O21        -2.6750   -5.0250   -0.3330 o         1 MOL     -0.608308
    160 O22        -3.6170   -6.9840   -0.4490 o         1 MOL     -0.608308
    161 H72        -7.5220   -2.8520   -1.5510 hn        1 MOL      0.277782
    162 H73        -7.5590   -4.5890   -0.2070 h1        1 MOL      0.108182
    163 H74        -5.3200   -5.0300    1.1470 hc        1 MOL     -0.007847
    164 H75        -4.8490   -3.5080    0.3760 hc        1 MOL     -0.007847
    165 H76        -5.1030   -4.5210   -1.8460 hc        1 MOL     -0.052934
    166 H77        -5.7150   -5.9320   -1.0230 hc        1 MOL     -0.052934
    167 N15        -8.5040   -2.6730    1.9420 n         1 MOL     -0.211849
    168 C54        -9.1120   -2.4500    3.2590 c3        1 MOL     -0.005848
    169 H78        -8.6960   -3.1590    3.9750 h1        1 MOL      0.047663
    170 H79        -8.9000   -1.4340    3.5900 h1        1 MOL      0.047663
    171 H80       -10.1900   -2.5940    3.1900 h1        1 MOL      0.047663
    172 H81        -8.8160   -2.1300    1.1520 hn        1 MOL      0.201649
    173 Ca1        -0.5820   -4.6340    0.9600 Ca        1 MOL      1.721925
    174 O23        -1.4260   -3.5290    3.1910 oh        1 MOL     -0.807470
    175 H82        -0.8040   -3.3290    3.9010 ho        1 MOL      0.400438
    176 H83        -2.2690   -3.2170    3.5140 ho        1 MOL      0.400438
    177 O24        -2.1380   -6.2050    2.5720 oh        1 MOL     -0.807470
    178 H84        -2.7470   -6.9110    2.7640 ho        1 MOL      0.400438
    179 H85        -2.0540   -5.7350    3.3980 ho        1 MOL      0.400438
    180 O25         1.7020   -5.8460    0.1830 oh        1 MOL     -0.807470
    181 H86         2.4360   -5.5900    0.7360 ho        1 MOL      0.400438
    182 H87         2.0780   -6.4420   -0.4650 ho        1 MOL      0.400438
    183 O26        -0.2150   -4.9350   -2.0540 oh        1 MOL     -0.807470
    184 H88        -0.6360   -4.4670   -2.7790 ho        1 MOL      0.400438
    185 H89        -0.2260   -5.8510   -2.3180 ho        1 MOL      0.400438
    186 O27         0.7310   -5.8670    2.8650 oh        1 MOL     -0.807470
    187 H90         1.5510   -5.4940    3.1890 ho        1 MOL      0.400438
    188 H91         0.4710   -6.4900    3.5520 ho        1 MOL      0.400438
    189 O28        -0.9780   -7.2400    0.0560 oh        1 MOL     -0.807470
    190 H92        -0.7010   -7.5440   -0.8080 ho        1 MOL      0.400438
    191 H93        -1.9310   -7.2030    0.0110 ho        1 MOL      0.400438
@<TRIPOS>BOND
     1    1    2 1   
     2    1    4 1   
     3    1    5 1   
     4    1    6 1   
     5    2    3 2   
     6    2    7 1   
     7    7    8 1   
     8    7   15 1   
     9    8    9 1   
    10    8   11 1   
    11    8   16 1   
    12    9   10 2   
    13    9   19 1   
    14   11   12 1   
    15   11   17 1   
    16   11   18 1   
    17   12   13 1   
    18   12   14 1   
    19   19   20 1   
    20   19   28 1   
    21   20   21 1   
    22   20   23 1   
    23   20   29 1   
    24   21   22 2   
    25   21   41 1   
    26   23   24 1   
    27   23   30 1   
    28   23   31 1   
    29   24   25 1   
    30   24   32 1   
    31   24   33 1   
    32   25   26 1   
    33   25   34 1   
    34   25   35 1   
    35   26   27 1   
    36   26   36 1   
    37   26   37 1   
    38   27   38 1   
    39   27   39 1   
    40   27   40 1   
    41   41   42 1   
    42   41   49 1   
    43   42   43 1   
    44   42   45 1   
    45   42   50 1   
    46   43   44 2   
    47   43   53 1   
    48   45   46 1   
    49   45   51 1   
    50   45   52 1   
    51   46   47 1   
    52   46   48 1   
    53   53   54 1   
    54   53   57 1   
    55   54   55 1   
    56   54   58 1   
    57   54   59 1   
    58   55   56 2   
    59   55   60 1   
    60   60   61 1   
    61   60   68 1   
    62   61   62 1   
    63   61   64 1   
    64   61   69 1   
    65   62   63 2   
    66   62   74 1   
    67   64   65 1   
    68   64   70 1   
    69   64   71 1   
    70   65   66 1   
    71   65   67 2   
    72   66   72 1   
    73   66   73 1   
    74   74   75 1   
    75   74   78 1   
    76   75   76 1   
    77   75   79 1   
    78   75   80 1   
    79   76   77 2   
    80   76   81 1   
    81   81   82 1   
    82   81   93 1   
    83   82   83 1   
    84   82   85 1   
    85   82   94 1   
    86   83   84 2   
    87   83  102 1   
    88   85   86 1   
    89   85   95 1   
    90   85   96 1   
    91   86   87 ar  
    92   86   88 ar  
    93   87   89 ar  
    94   87   97 1   
    95   88   90 ar  
    96   88   98 1   
    97   89   91 ar  
    98   89   99 1   
    99   90   91 ar  
   100   90  100 1   
   101   91   92 1   
   102   92  101 1   
   103  102  103 1   
   104  102  110 1   
   105  103  104 1   
   106  103  106 1   
   107  103  111 1   
   108  104  105 2   
   109  104  121 1   
   110  106  107 1   
   111  106  108 1   
   112  106  112 1   
   113  107  109 1   
   114  107  113 1   
   115  107  114 1   
   116  108  115 1   
   117  108  116 1   
   118  108  117 1   
   119  109  118 1   
   120  109  119 1   
   121  109  120 1   
   122  121  122 1   
   123  121  127 1   
   124  122  123 1   
   125  122  125 1   
   126  122  128 1   
   127  123  124 2   
   128  123  132 1   
   129  125  126 1   
   130  125  129 1   
   131  125  130 1   
   132  126  131 1   
   133  132  133 1   
   134  132  137 1   
   135  133  134 1   
   136  133  136 1   
   137  133  138 1   
   138  134  135 2   
   139  134  142 1   
   140  136  139 1   
   141  136  140 1   
   142  136  141 1   
   143  142  143 1   
   144  142  147 1   
   145  143  144 1   
   146  143  146 1   
   147  143  148 1   
   148  144  145 2   
   149  144  152 1   
   150  146  149 1   
   151  146  150 1   
   152  146  151 1   
   153  152  153 1   
   154  152  161 1   
   155  153  154 1   
   156  153  156 1   
   157  153  162 1   
   158  154  155 2   
   159  154  167 1   
   160  156  157 1   
   161  156  163 1   
   162  156  164 1   
   163  157  158 1   
   164  157  165 1   
   165  157  166 1   
   166  158  159 1   
   167  158  160 1   
   168  167  168 1   
   169  167  172 1   
   170  168  169 1   
   171  168  170 1   
   172  168  171 1   
   173  174  175 1   
   174  174  176 1   
   175  177  178 1   
   176  177  179 1   
   177  180  181 1   
   178  180  182 1   
   179  183  184 1   
   180  183  185 1   
   181  186  187 1   
   182  186  188 1   
   183  189  190 1   
   184  189  191 1   
@<TRIPOS>SUBSTRUCTURE
     1 MOL         1 TEMP              0 ****  ****    0 ROOT
