@<TRIPOS>MOLECULE
MOL
  184   179     1     0     0
SMALL
resp


@<TRIPOS>ATOM
      1 C1          2.8950   -2.6960    4.1190 c3        1 MOL     -0.426402
      2 C2          4.2620   -2.1650    3.7050 c         1 MOL      0.785384
      3 O1          4.5490   -0.9830    3.6170 o         1 MOL     -0.645688
      4 H1          2.7550   -3.6960    3.7100 hc        1 MOL      0.104078
      5 H2          2.8350   -2.7390    5.2070 hc        1 MOL      0.104078
      6 H3          2.1180   -2.0360    3.7380 hc        1 MOL      0.104078
      7 N1          5.2290   -3.0700    3.5380 n         1 MOL     -0.531041
      8 C3          6.5610   -2.8080    3.0570 c3        1 MOL      0.103641
      9 C4          6.5080   -2.7560    1.5050 c         1 MOL      0.685405
     10 O2          5.9580   -3.6470    0.8580 o         1 MOL     -0.503866
     11 C5          7.5230   -3.9190    3.5330 c3        1 MOL     -0.300677
     12 C6          7.1160   -5.3180    3.2610 c         1 MOL      0.745397
     13 O3          8.0540   -6.1040    3.0560 o         1 MOL     -0.716381
     14 O4          5.9160   -5.7350    3.2780 o         1 MOL     -0.716381
     15 H4          5.0590   -4.0530    3.7140 hn        1 MOL      0.267731
     16 H5          6.8900   -1.8400    3.4480 h1        1 MOL      0.024443
     17 H6          7.6070   -3.9400    4.6240 hc        1 MOL      0.057599
     18 H7          8.5150   -3.7810    3.1000 hc        1 MOL      0.057599
     19 N2          7.1360   -1.7530    0.9130 n         1 MOL     -0.738601
     20 C7          7.0320   -1.4140   -0.5060 c3        1 MOL      0.703839
     21 C8          5.7340   -0.5670   -0.7660 c         1 MOL      0.099694
     22 O5          5.2300    0.1460    0.1090 o         1 MOL     -0.417626
     23 C9          8.2790   -0.7920   -0.9370 c3        1 MOL     -0.534489
     24 H8          7.4510   -1.0300    1.5410 hn        1 MOL      0.316595
     25 H9          6.9340   -2.4000   -0.9670 h1        1 MOL     -0.049048
     26 H10         9.0880   -1.4800   -0.6840 hc        1 MOL      0.123574
     27 H11         8.3610   -0.7310   -2.0300 hc        1 MOL      0.123574
     28 H12         8.3850    0.1400   -0.3810 hc        1 MOL      0.123574
     29 N3          5.3270   -0.5580   -2.0290 n         1 MOL     -0.405735
     30 C10         4.3240    0.2310   -2.7680 c3        1 MOL     -0.003351
     31 C11         4.6760    1.6970   -3.2220 c         1 MOL      0.547647
     32 O6          4.0770    2.2350   -4.2320 o         1 MOL     -0.536573
     33 C12         3.7100   -0.6650   -3.8960 c3        1 MOL     -0.088314
     34 C13         3.3100   -2.0600   -3.4030 c         1 MOL      0.837627
     35 O7          2.4360   -2.1440   -2.5780 o         1 MOL     -0.775238
     36 O8          3.8020   -3.0230   -3.9930 o         1 MOL     -0.775238
     37 H13         5.8680   -1.1580   -2.6530 hn        1 MOL      0.269798
     38 H14         3.5320    0.4830   -2.0610 h1        1 MOL      0.149339
     39 H15         4.4720   -0.7230   -4.6730 hc        1 MOL      0.017620
     40 H16         2.8580   -0.1720   -4.3590 hc        1 MOL      0.017620
     41 N4          5.6260    2.3980   -2.4970 n         1 MOL     -0.476053
     42 C14         6.1950    3.6450   -2.9410 c3        1 MOL     -0.103671
     43 C15         5.4310    4.9240   -2.6510 c         1 MOL      0.496502
     44 O9          5.9610    6.0590   -2.6120 o         1 MOL     -0.553907
     45 H17         6.0550    1.9100   -1.7280 hn        1 MOL      0.350029
     46 H18         6.4000    3.4440   -3.9950 h1        1 MOL      0.101907
     47 H19         7.1490    3.8470   -2.4600 h1        1 MOL      0.101907
     48 N5          4.1120    4.8580   -2.5020 n         1 MOL     -0.340572
     49 C16         3.2450    6.0550   -2.4890 c3        1 MOL      0.188175
     50 C17         2.8000    6.4320   -1.0370 c         1 MOL      0.382613
     51 O10         2.5920    7.5970   -0.7280 o         1 MOL     -0.530279
     52 C18         2.0180    5.7610   -3.4030 c3        1 MOL     -0.333056
     53 C19         2.4350    5.7880   -4.8530 c         1 MOL      0.612973
     54 N6          2.8000    4.6900   -5.4320 n         1 MOL     -0.636488
     55 O11         2.5300    6.8700   -5.4480 o         1 MOL     -0.586283
     56 H20         3.7680    3.9190   -2.6380 hn        1 MOL      0.211544
     57 H21         3.8140    6.9170   -2.8620 h1        1 MOL      0.111396
     58 H22         1.4090    6.6520   -3.2400 hc        1 MOL      0.109844
     59 H23         1.4840    4.8530   -3.1570 hc        1 MOL      0.109844
     60 H24         2.7540    3.8120   -4.9480 hn        1 MOL      0.322009
     61 H25         2.8880    4.6820   -6.4320 hn        1 MOL      0.322009
     62 N7          2.6690    5.5140   -0.1120 n         1 MOL     -0.226946
     63 C20         2.0680    5.8240    1.2390 c3        1 MOL     -0.171271
     64 C21         0.5100    5.9700    1.1260 c         1 MOL      0.603442
     65 O12        -0.0650    5.5320    0.1150 o         1 MOL     -0.501226
     66 H26         3.0460    4.5970   -0.3400 hn        1 MOL      0.210705
     67 H27         2.4840    6.7720    1.5840 h1        1 MOL      0.094325
     68 H28         2.2920    5.0680    1.9880 h1        1 MOL      0.094325
     69 N8         -0.1420    6.5190    2.1310 n         1 MOL     -0.260719
     70 C22        -1.5940    6.7130    2.2010 c3        1 MOL     -0.607668
     71 C23        -2.3170    5.4310    2.5850 c         1 MOL      0.702882
     72 O13        -3.5540    5.3840    2.4420 o         1 MOL     -0.581254
     73 C24        -1.9570    7.7440    3.3160 c3        1 MOL      0.621414
     74 C25        -1.7210    7.4390    4.7750 c3        1 MOL     -0.247760
     75 O14        -1.3360    8.9970    3.2940 oh        1 MOL     -0.657945
     76 H29         0.4300    6.8660    2.8920 hn        1 MOL      0.208113
     77 H30        -1.9240    7.0970    1.2460 h1        1 MOL      0.245181
     78 H31        -3.0330    7.9240    3.1900 h1        1 MOL     -0.005777
     79 H32        -0.4110    8.8250    3.1340 ho        1 MOL      0.370824
     80 H33        -2.6330    6.9330    5.1060 hc        1 MOL      0.053768
     81 H34        -0.9160    6.7100    4.8530 hc        1 MOL      0.053768
     82 H35        -1.5670    8.2930    5.4420 hc        1 MOL      0.053768
     83 N9         -1.6380    4.3310    3.0120 n         1 MOL     -0.296401
     84 C26        -2.1640    2.9740    3.3110 c3        1 MOL      0.025899
     85 C27        -1.6830    2.0380    2.1620 c         1 MOL      0.439694
     86 O15        -0.5640    2.2620    1.6230 o         1 MOL     -0.495531
     87 C28        -1.6590    2.5350    4.7670 c3        1 MOL      0.415954
     88 C29        -1.8890    3.6780    5.7990 c3        1 MOL     -0.142886
     89 C30        -2.2970    1.2560    5.0990 c3        1 MOL     -0.332443
     90 C31        -3.3070    4.2370    5.8350 c3        1 MOL      0.005208
     91 H36        -0.6430    4.4000    3.1360 hn        1 MOL      0.166394
     92 H37        -3.2500    2.8710    3.3580 h1        1 MOL      0.023250
     93 H38        -0.5900    2.2840    4.7450 hc        1 MOL     -0.048784
     94 H39        -1.1480    4.4540    5.5830 hc        1 MOL     -0.001946
     95 H40        -1.5560    3.2370    6.7380 hc        1 MOL     -0.001946
     96 H41        -2.2520    1.0770    6.1760 hc        1 MOL      0.069400
     97 H42        -3.3660    1.2130    4.8600 hc        1 MOL      0.069400
     98 H43        -1.7870    0.4430    4.5650 hc        1 MOL      0.069400
     99 H44        -3.4610    4.7720    4.9000 hc        1 MOL     -0.007053
    100 H45        -4.0430    3.4430    5.9290 hc        1 MOL     -0.007053
    101 H46        -3.5240    4.9190    6.6580 hc        1 MOL     -0.007053
    102 N10        -2.5350    1.0800    1.7900 n         1 MOL     -0.501857
    103 C32        -2.0690    0.1080    0.7470 c3        1 MOL      0.491073
    104 C33        -3.0840   -0.1490   -0.3810 c         1 MOL      0.357453
    105 O16        -3.0080   -1.2230   -1.0490 o         1 MOL     -0.442641
    106 C34        -1.6180   -1.2410    1.4670 c3        1 MOL     -0.558052
    107 C35        -0.4810   -1.9180    0.6840 c         1 MOL      0.988837
    108 O17         0.1490   -1.3370   -0.2030 o         1 MOL     -0.765971
    109 O18        -0.0600   -3.0430    1.0860 o         1 MOL     -0.765971
    110 H47        -3.3160    0.8680    2.3980 hn        1 MOL      0.277553
    111 H48        -1.2280    0.5330    0.2090 h1        1 MOL      0.033481
    112 H49        -2.4780   -1.9220    1.5370 hc        1 MOL      0.108403
    113 H50        -1.2980   -0.9610    2.4710 hc        1 MOL      0.108403
    114 N11        -4.0870    0.7730   -0.5430 n         1 MOL     -0.481662
    115 C36        -5.3250    0.5820   -1.3660 c3        1 MOL      0.210500
    116 C37        -6.0280   -0.7500   -0.9570 c         1 MOL      0.232161
    117 O19        -6.1520   -0.9530    0.2740 o         1 MOL     -0.479901
    118 C38        -6.2230    1.7770   -1.1200 c3        1 MOL     -0.131820
    119 C39        -7.5940    1.5180   -1.6330 ca        1 MOL     -0.044558
    120 C40        -8.5680    1.0550   -0.7330 ca        1 MOL     -0.077143
    121 C41        -7.9070    1.5880   -2.9840 ca        1 MOL     -0.077143
    122 C42        -9.8720    0.7310   -1.2350 ca        1 MOL     -0.157651
    123 C43        -9.0830    1.1060   -3.4760 ca        1 MOL     -0.157651
    124 C44       -10.0920    0.6300   -2.6560 ca        1 MOL     -0.091997
    125 H51        -4.1120    1.5740    0.0740 hn        1 MOL      0.222881
    126 H52        -5.0610    0.6370   -2.4150 h1        1 MOL      0.041911
    127 H53        -5.8610    2.6860   -1.6120 hc        1 MOL      0.087181
    128 H54        -6.3950    2.1270   -0.1120 hc        1 MOL      0.087181
    129 H55        -8.2820    0.9340    0.3010 ha        1 MOL      0.096263
    130 H56        -7.1450    1.9400   -3.6470 ha        1 MOL      0.096263
    131 H57       -10.5040    0.4110   -0.4210 ha        1 MOL      0.117552
    132 H58        -9.1700    1.0400   -4.5560 ha        1 MOL      0.117552
    133 H59       -11.0540    0.3280   -3.0570 ha        1 MOL      0.102643
    134 N12        -6.4510   -1.6000   -1.9250 n         1 MOL      0.155557
    135 C45        -7.3470   -2.7290   -1.5590 c3        1 MOL     -0.049617
    136 C46        -6.6980   -3.8390   -0.7310 c         1 MOL      0.390386
    137 O20        -7.4410   -4.7840   -0.3510 o         1 MOL     -0.563589
    138 C47        -7.7970   -3.1530   -2.9760 c3        1 MOL     -0.035798
    139 C48        -6.6040   -2.9290   -3.8890 c3        1 MOL      0.039942
    140 C49        -6.1700   -1.5680   -3.3700 c3        1 MOL     -0.152272
    141 H60        -8.2110   -2.3610   -0.9990 h1        1 MOL      0.069160
    142 H61        -8.0320   -4.2100   -2.9370 hc        1 MOL      0.016750
    143 H62        -8.6420   -2.5480   -3.3370 hc        1 MOL      0.016750
    144 H63        -5.8770   -3.6780   -3.5990 hc        1 MOL      0.024078
    145 H64        -6.9280   -3.0390   -4.9250 hc        1 MOL      0.024078
    146 H65        -5.1270   -1.4430   -3.6240 h1        1 MOL      0.051689
    147 H66        -6.7690   -0.7360   -3.7460 h1        1 MOL      0.051689
    148 N13        -5.4290   -3.7970   -0.3880 n         1 MOL     -0.146460
    149 C50        -4.6520   -4.8410    0.3120 c3        1 MOL     -0.031176
    150 C51        -4.8360   -4.9860    1.8230 c         1 MOL      0.463830
    151 O21        -4.5310   -6.0670    2.3240 o         1 MOL     -0.530767
    152 C52        -3.0880   -4.7900   -0.0480 c3        1 MOL      0.083504
    153 C53        -2.7140   -4.9300   -1.5540 c3        1 MOL     -0.242445
    154 C54        -1.1650   -4.8190   -1.6050 c         1 MOL      0.755434
    155 O22        -0.6520   -3.9980   -2.3320 o         1 MOL     -0.778647
    156 O23        -0.4260   -5.4670   -0.8020 o         1 MOL     -0.778647
    157 H67        -4.8420   -3.0370   -0.7010 hn        1 MOL      0.155900
    158 H68        -4.9730   -5.8220   -0.0400 h1        1 MOL      0.065607
    159 H69        -2.6330   -5.5780    0.5490 hc        1 MOL      0.020979
    160 H70        -2.6720   -3.8430    0.3080 hc        1 MOL      0.020979
    161 H71        -3.1970   -4.2560   -2.2620 hc        1 MOL      0.042351
    162 H72        -3.0620   -5.9070   -1.8850 hc        1 MOL      0.042351
    163 N14        -5.3820   -3.9430    2.4530 n         1 MOL     -0.298482
    164 C55        -5.2610   -3.5870    3.9140 c3        1 MOL     -0.059981
    165 H73        -4.9750   -2.5400    4.0100 h1        1 MOL      0.059810
    166 H74        -6.2190   -3.7500    4.4080 h1        1 MOL      0.059810
    167 H75        -4.5000   -4.2140    4.3790 h1        1 MOL      0.059810
    168 H76        -5.6260   -3.1820    1.8360 hn        1 MOL      0.207265
    169 Ca1         1.5420   -3.8520   -0.8730 Ca        1 MOL      1.830077
    170 O24         3.2830   -2.0370    0.3820 oh        1 MOL     -0.828250
    171 H77         4.1210   -2.4550    0.1790 ho        1 MOL      0.399690
    172 H78         3.4810   -1.1050    0.3710 ho        1 MOL      0.399690
    173 O25         2.1150   -4.9480   -3.3300 oh        1 MOL     -0.828250
    174 H79         1.4670   -4.8580   -4.0230 ho        1 MOL      0.399690
    175 H80         2.7870   -4.3020   -3.5480 ho        1 MOL      0.399690
    176 O26         4.3610   -4.3910   -0.8340 oh        1 MOL     -0.828250
    177 H81         5.0700   -4.5390   -1.4680 ho        1 MOL      0.399690
    178 H82         4.7820   -4.4720    0.0180 ho        1 MOL      0.399690
    179 O27         2.4960   -5.2040    1.6600 oh        1 MOL     -0.828250
    180 H83         2.8060   -6.1000    1.5870 ho        1 MOL      0.399690
    181 H84         2.0760   -5.1580    2.5140 ho        1 MOL      0.399690
    182 O28         2.2790   -6.8490   -0.7260 oh        1 MOL     -0.828250
    183 H85         1.9370   -7.4970   -1.3350 ho        1 MOL      0.399690
    184 H86         2.9570   -7.3170   -0.2350 ho        1 MOL      0.399690
@<TRIPOS>BOND
     1    1    2 1   
     2    1    4 1   
     3    1    5 1   
     4    1    6 1   
     5    2    3 2   
     6    2    7 1   
     7    7    8 1   
     8    7   15 1   
     9    8    9 1   
    10    8   11 1   
    11    8   16 1   
    12    9   10 2   
    13    9   19 1   
    14   11   12 1   
    15   11   17 1   
    16   11   18 1   
    17   12   13 1   
    18   12   14 1   
    19   19   20 1   
    20   19   24 1   
    21   20   21 1   
    22   20   23 1   
    23   20   25 1   
    24   21   22 2   
    25   21   29 1   
    26   23   26 1   
    27   23   27 1   
    28   23   28 1   
    29   29   30 1   
    30   29   37 1   
    31   30   31 1   
    32   30   33 1   
    33   30   38 1   
    34   31   32 2   
    35   31   41 1   
    36   33   34 1   
    37   33   39 1   
    38   33   40 1   
    39   34   35 1   
    40   34   36 1   
    41   41   42 1   
    42   41   45 1   
    43   42   43 1   
    44   42   46 1   
    45   42   47 1   
    46   43   44 2   
    47   43   48 1   
    48   48   49 1   
    49   48   56 1   
    50   49   50 1   
    51   49   52 1   
    52   49   57 1   
    53   50   51 2   
    54   50   62 1   
    55   52   53 1   
    56   52   58 1   
    57   52   59 1   
    58   53   54 1   
    59   53   55 2   
    60   54   60 1   
    61   54   61 1   
    62   62   63 1   
    63   62   66 1   
    64   63   64 1   
    65   63   67 1   
    66   63   68 1   
    67   64   65 2   
    68   64   69 1   
    69   69   70 1   
    70   69   76 1   
    71   70   71 1   
    72   70   73 1   
    73   70   77 1   
    74   71   72 2   
    75   71   83 1   
    76   73   74 1   
    77   73   75 1   
    78   73   78 1   
    79   74   80 1   
    80   74   81 1   
    81   74   82 1   
    82   75   79 1   
    83   83   84 1   
    84   83   91 1   
    85   84   85 1   
    86   84   87 1   
    87   84   92 1   
    88   85   86 2   
    89   85  102 1   
    90   87   88 1   
    91   87   89 1   
    92   87   93 1   
    93   88   90 1   
    94   88   94 1   
    95   88   95 1   
    96   89   96 1   
    97   89   97 1   
    98   89   98 1   
    99   90   99 1   
   100   90  100 1   
   101   90  101 1   
   102  102  103 1   
   103  102  110 1   
   104  103  104 1   
   105  103  106 1   
   106  103  111 1   
   107  104  105 2   
   108  104  114 1   
   109  106  107 1   
   110  106  112 1   
   111  106  113 1   
   112  107  108 1   
   113  107  109 1   
   114  114  115 1   
   115  114  125 1   
   116  115  116 1   
   117  115  118 1   
   118  115  126 1   
   119  116  117 2   
   120  116  134 1   
   121  118  119 1   
   122  118  127 1   
   123  118  128 1   
   124  119  120 ar  
   125  119  121 ar  
   126  120  122 ar  
   127  120  129 1   
   128  121  123 ar  
   129  121  130 1   
   130  122  124 ar  
   131  122  131 1   
   132  123  124 ar  
   133  123  132 1   
   134  124  133 1   
   135  134  135 1   
   136  134  140 1   
   137  135  136 1   
   138  135  138 1   
   139  135  141 1   
   140  136  137 2   
   141  136  148 1   
   142  138  139 1   
   143  138  142 1   
   144  138  143 1   
   145  139  140 1   
   146  139  144 1   
   147  139  145 1   
   148  140  146 1   
   149  140  147 1   
   150  148  149 1   
   151  148  157 1   
   152  149  150 1   
   153  149  152 1   
   154  149  158 1   
   155  150  151 2   
   156  150  163 1   
   157  152  153 1   
   158  152  159 1   
   159  152  160 1   
   160  153  154 1   
   161  153  161 1   
   162  153  162 1   
   163  154  155 1   
   164  154  156 1   
   165  163  164 1   
   166  163  168 1   
   167  164  165 1   
   168  164  166 1   
   169  164  167 1   
   170  170  171 1   
   171  170  172 1   
   172  173  174 1   
   173  173  175 1   
   174  176  177 1   
   175  176  178 1   
   176  179  180 1   
   177  179  181 1   
   178  182  183 1   
   179  182  184 1   
@<TRIPOS>SUBSTRUCTURE
     1 MOL         1 TEMP              0 ****  ****    0 ROOT
