@<TRIPOS>MOLECULE
MOL
  181   177     1     0     0
SMALL
resp


@<TRIPOS>ATOM
      1 C1          1.0970    7.0140   -2.0350 c3        1 MOL     -0.374709
      2 C2          2.4360    7.0750   -1.2740 c         1 MOL      0.673202
      3 O1          2.4430    7.5810   -0.1410 o         1 MOL     -0.597566
      4 H1          0.6720    6.0150   -1.9410 hc        1 MOL      0.090359
      5 H2          0.4060    7.7440   -1.6140 hc        1 MOL      0.090359
      6 H3          1.2660    7.2390   -3.0880 hc        1 MOL      0.090359
      7 N1          3.4640    6.5490   -1.8870 n         1 MOL     -0.522378
      8 C3          4.8140    6.3430   -1.2420 c3        1 MOL      0.104501
      9 C4          4.9240    5.1360   -0.3320 c         1 MOL      0.539008
     10 O2          5.0590    4.0010   -0.7500 o         1 MOL     -0.539049
     11 C5          5.8700    6.1980   -2.4120 c3        1 MOL     -0.208358
     12 C6          7.3660    6.1960   -1.8990 c         1 MOL      0.647050
     13 O3          7.8180    5.2440   -1.1930 o         1 MOL     -0.706640
     14 O4          8.1480    7.1550   -2.1120 o         1 MOL     -0.706640
     15 H4          3.3180    6.0800   -2.7700 hn        1 MOL      0.299298
     16 H5          5.1060    7.2750   -0.7610 h1        1 MOL      0.066371
     17 H6          5.8190    7.0250   -3.1260 hc        1 MOL      0.027190
     18 H7          5.6750    5.2790   -2.9660 hc        1 MOL      0.027190
     19 N2          4.8400    5.3850    0.9080 n         1 MOL     -0.544634
     20 C7          4.8730    4.4120    2.0280 c3        1 MOL      0.395309
     21 C8          3.4910    3.7460    2.2710 c         1 MOL      0.381536
     22 O5          2.4750    4.3940    2.0910 o         1 MOL     -0.512696
     23 C9          5.3670    5.0280    3.3720 c3        1 MOL     -0.338396
     24 H8          4.4340    6.2910    1.1200 hn        1 MOL      0.294368
     25 H9          5.5160    3.5850    1.7340 h1        1 MOL      0.046772
     26 H10         4.6190    5.7410    3.7170 hc        1 MOL      0.086104
     27 H11         5.6180    4.2810    4.1230 hc        1 MOL      0.086104
     28 H12         6.3040    5.5690    3.3160 hc        1 MOL      0.086104
     29 N3          3.2990    2.5460    2.8370 n         1 MOL     -0.362642
     30 C10         4.3180    1.5170    3.0830 c3        1 MOL      0.030935
     31 C11         4.3940    0.4440    2.0890 c         1 MOL      0.306337
     32 O6          3.4510    0.2660    1.3820 o         1 MOL     -0.313913
     33 C12         4.1610    0.9980    4.4990 c3        1 MOL     -0.163694
     34 C13         3.0270    0.0530    4.7760 c         1 MOL      0.705416
     35 O7          2.1970   -0.2510    3.8930 o         1 MOL     -0.691707
     36 O8          2.9300   -0.4870    5.8710 o         1 MOL     -0.691707
     37 H13         2.3300    2.2720    2.9340 hn        1 MOL      0.249919
     38 H14         5.2820    2.0090    3.0430 h1        1 MOL      0.038151
     39 H15         4.1980    1.8850    5.1340 hc        1 MOL      0.031260
     40 H16         5.0710    0.4320    4.6370 hc        1 MOL      0.031260
     41 N4          5.5780   -0.2260    2.0230 n         1 MOL     -0.372563
     42 C14         5.9370   -1.2330    0.9990 c3        1 MOL     -0.086028
     43 C15         5.9360   -0.8160   -0.4900 c         1 MOL      0.675243
     44 O9          5.5090    0.2840   -0.8900 o         1 MOL     -0.501456
     45 H17         6.2740   -0.0120    2.7180 hn        1 MOL      0.304327
     46 H18         5.3100   -2.1140    1.1080 h1        1 MOL      0.072681
     47 H19         6.9960   -1.5040    1.0900 h1        1 MOL      0.072681
     48 N5          6.5150   -1.5980   -1.4170 n         1 MOL     -0.682836
     49 C16         6.4400   -3.0360   -1.4120 c3        1 MOL      0.388148
     50 C17         5.1050   -3.5030   -2.1210 c         1 MOL      0.372365
     51 O10         4.3590   -2.6910   -2.6770 o         1 MOL     -0.485456
     52 C18         7.7530   -3.4790   -2.1610 c3        1 MOL     -0.468295
     53 C19         7.8460   -5.0420   -2.2010 c         1 MOL      0.680343
     54 N6          8.0180   -5.5950   -3.3120 n         1 MOL     -0.751804
     55 O11         7.5210   -5.8320   -1.2890 o         1 MOL     -0.601608
     56 H20         6.6560   -1.1050   -2.2920 hn        1 MOL      0.363106
     57 H21         6.3780   -3.4120   -0.3840 h1        1 MOL     -0.044400
     58 H22         8.7070   -3.1310   -1.7680 hc        1 MOL      0.150901
     59 H23         7.6990   -3.1030   -3.1850 hc        1 MOL      0.150901
     60 H24         8.3580   -5.0510   -4.0960 hn        1 MOL      0.363975
     61 H25         7.8420   -6.5960   -3.3570 hn        1 MOL      0.363975
     62 N7          4.7950   -4.8300   -2.2120 n         1 MOL     -0.199053
     63 C20         3.6990   -5.2340   -2.9870 c3        1 MOL     -0.442812
     64 C21         2.3210   -5.2580   -2.3540 c         1 MOL      0.676382
     65 O12         1.3390   -5.3070   -3.0020 o         1 MOL     -0.582521
     66 H26         5.2990   -5.4530   -1.5960 hn        1 MOL      0.263050
     67 H27         3.9700   -6.2380   -3.3110 h1        1 MOL      0.176806
     68 H28         3.5970   -4.6180   -3.8730 h1        1 MOL      0.176806
     69 N8          2.2030   -5.0570   -1.0080 n         1 MOL     -0.357040
     70 C22         0.9090   -5.3400   -0.2700 c3        1 MOL      0.006547
     71 C23        -0.0300   -4.1660   -0.3120 c         1 MOL      0.452193
     72 O13         0.2520   -3.1370    0.2420 o         1 MOL     -0.541692
     73 C24         1.1840   -5.8080    1.1250 c3        1 MOL      0.303234
     74 C25        -0.0200   -6.1970    2.0410 c3        1 MOL     -0.453642
     75 O14         2.0410   -6.9720    1.1510 oh        1 MOL     -0.645133
     76 H29         3.0570   -5.0540   -0.4780 hn        1 MOL      0.168562
     77 H30         0.4130   -6.1920   -0.7280 h1        1 MOL      0.096515
     78 H31         1.6900   -4.9460    1.5800 h1        1 MOL      0.006674
     79 H32         2.3910   -7.1260    2.0350 ho        1 MOL      0.399249
     80 H33        -0.7920   -5.4500    2.2340 hc        1 MOL      0.138284
     81 H34        -0.5330   -6.9810    1.4870 hc        1 MOL      0.138284
     82 H35         0.2810   -6.6170    3.0030 hc        1 MOL      0.138284
     83 N9         -1.1670   -4.4740   -0.9650 n         1 MOL     -0.155488
     84 C26        -2.3110   -3.5720   -1.0320 c3        1 MOL     -0.298937
     85 C27        -3.1130   -3.5850    0.3660 c         1 MOL      0.116384
     86 O15        -3.5940   -4.6660    0.6740 o         1 MOL     -0.495548
     87 C28        -3.1750   -3.9080   -2.3140 c3        1 MOL      0.520761
     88 C29        -4.6070   -3.2060   -2.2970 c3        1 MOL     -0.020747
     89 C30        -2.3840   -3.6480   -3.5720 c3        1 MOL     -0.372328
     90 C31        -5.4940   -3.4340   -3.5390 c3        1 MOL     -0.136649
     91 H36        -1.1440   -5.3550   -1.4640 hn        1 MOL      0.211278
     92 H37        -1.9770   -2.5310   -1.0980 h1        1 MOL      0.122706
     93 H38        -3.4230   -4.9620   -2.3600 hc        1 MOL     -0.074871
     94 H39        -4.4450   -2.1380   -2.1380 hc        1 MOL      0.005981
     95 H40        -5.0750   -3.5940   -1.3950 hc        1 MOL      0.005981
     96 H41        -2.1100   -2.6060   -3.4440 hc        1 MOL      0.074669
     97 H42        -1.4830   -4.2650   -3.6380 hc        1 MOL      0.074669
     98 H43        -3.0200   -3.9380   -4.3960 hc        1 MOL      0.074669
     99 H44        -6.4390   -2.9210   -3.3540 hc        1 MOL      0.021890
    100 H45        -5.0410   -3.0690   -4.4580 hc        1 MOL      0.021890
    101 H46        -5.7220   -4.5020   -3.6220 hc        1 MOL      0.021890
    102 N10        -3.1630   -2.4990    1.0950 n         1 MOL      0.281515
    103 C32        -3.8120   -2.3070    2.3280 c3        1 MOL      0.018071
    104 C33        -5.0860   -1.4480    2.2730 c         1 MOL      0.427076
    105 O16        -6.0230   -1.6450    3.0600 o         1 MOL     -0.551906
    106 C34        -2.9110   -1.9140    3.5340 c3        1 MOL      0.047066
    107 C35        -1.7180   -2.8540    3.5480 c         1 MOL      0.840503
    108 O17        -1.8200   -3.9640    4.0460 o         1 MOL     -0.751491
    109 O18        -0.6280   -2.3510    3.2440 o         1 MOL     -0.751491
    110 H47        -2.5840   -1.7660    0.6960 hn        1 MOL     -0.182457
    111 H48        -4.0490   -3.3280    2.6520 h1        1 MOL      0.066102
    112 H49        -3.3400   -1.8980    4.5340 hc        1 MOL     -0.044192
    113 H50        -2.5510   -0.9050    3.3180 hc        1 MOL     -0.044192
    114 N11        -5.2650   -0.6300    1.2070 n         1 MOL     -0.486491
    115 C36        -6.4480    0.1960    1.0300 c3        1 MOL      0.482888
    116 C37        -6.0480    1.4550    0.2600 c         1 MOL      0.179585
    117 O19        -6.6050    1.7140   -0.7980 o         1 MOL     -0.337858
    118 C38        -7.6540   -0.6180    0.4390 c3        1 MOL     -0.363473
    119 C39        -8.9880    0.1820    0.2430 ca        1 MOL      0.106386
    120 C40        -9.5960    0.3960   -1.0270 ca        1 MOL     -0.157856
    121 C41        -9.5490    0.8000    1.4130 ca        1 MOL     -0.157856
    122 C42       -10.7440    1.0530   -1.1910 ca        1 MOL     -0.135671
    123 C43       -10.6980    1.5860    1.1890 ca        1 MOL     -0.135671
    124 C44       -11.3190    1.6770   -0.0910 ca        1 MOL     -0.092950
    125 H51        -4.4890   -0.4990    0.5630 hn        1 MOL      0.211960
    126 H52        -6.8640    0.4420    2.0060 h1        1 MOL     -0.010814
    127 H53        -7.8290   -1.5050    1.0480 hc        1 MOL      0.122841
    128 H54        -7.2850   -0.9380   -0.5310 hc        1 MOL      0.122841
    129 H55        -9.0770    0.0220   -1.9030 ha        1 MOL      0.130286
    130 H56        -9.2040    0.5530    2.4090 ha        1 MOL      0.130286
    131 H57       -11.1930    1.2320   -2.1470 ha        1 MOL      0.103749
    132 H58       -11.0590    2.0450    2.0950 ha        1 MOL      0.103749
    133 H59       -12.2800    2.1520   -0.1750 ha        1 MOL      0.080508
    134 N12        -5.2210    2.3100    0.9240 n         1 MOL     -0.206373
    135 C45        -4.7040    3.5920    0.4180 c3        1 MOL      0.210544
    136 C46        -4.3080    3.6340   -1.0020 c         1 MOL      0.114996
    137 O20        -4.5400    4.6490   -1.6400 o         1 MOL     -0.514060
    138 C47        -3.5500    4.0230    1.2460 c3        1 MOL      0.018602
    139 C48        -3.9810    3.4520    2.6190 c3        1 MOL     -0.179397
    140 C49        -4.6360    2.1290    2.2520 c3        1 MOL     -0.005369
    141 H60        -5.4490    4.3900    0.4710 h1        1 MOL      0.038853
    142 H61        -2.5880    3.5740    0.9830 hc        1 MOL      0.043986
    143 H62        -3.4480    5.1050    1.3500 hc        1 MOL      0.043986
    144 H63        -3.1050    3.3330    3.2540 hc        1 MOL      0.054269
    145 H64        -4.7220    4.1410    3.0230 hc        1 MOL      0.054269
    146 H65        -3.9370    1.2940    2.2250 h1        1 MOL      0.058808
    147 H66        -5.3810    1.8290    3.0000 h1        1 MOL      0.058808
    148 N13        -3.6880    2.6550   -1.5340 n         1 MOL      0.049033
    149 C50        -3.1200    2.5370   -2.9020 c3        1 MOL     -0.147123
    150 C51        -4.1930    2.5850   -3.9060 c         1 MOL      0.557674
    151 O21        -3.8400    3.0660   -4.9760 o         1 MOL     -0.572072
    152 C52        -2.3620    1.2440   -3.0060 c3        1 MOL      0.155326
    153 C53        -1.3370    0.9590   -1.8730 c3        1 MOL     -0.301376
    154 C54        -1.8650    0.2230   -0.6360 c         1 MOL      0.614412
    155 O22        -1.0530   -0.4130    0.0670 o         1 MOL     -0.486014
    156 O23        -3.0950    0.2130   -0.4090 o         1 MOL     -0.486014
    157 H67        -3.4580    1.8560   -0.9680 hn        1 MOL      0.046846
    158 H68        -2.4810    3.4080   -3.0360 h1        1 MOL      0.106959
    159 H69        -1.7820    1.3620   -3.9170 hc        1 MOL     -0.032960
    160 H70        -3.1590    0.5040   -3.1230 hc        1 MOL     -0.032960
    161 H71        -0.8290    1.8420   -1.4880 hc        1 MOL      0.088243
    162 H72        -0.5520    0.2980   -2.2260 hc        1 MOL      0.088243
    163 N14        -5.4620    2.2080   -3.6060 n         1 MOL     -0.214242
    164 C55        -6.6350    2.3220   -4.5790 c3        1 MOL     -0.288635
    165 H73        -7.3240    1.4930   -4.4160 h1        1 MOL      0.116700
    166 H74        -7.1560    3.2640   -4.4120 h1        1 MOL      0.116700
    167 H75        -6.2630    2.2890   -5.6030 h1        1 MOL      0.116700
    168 H76        -5.6340    1.8550   -2.6760 hn        1 MOL      0.160309
    169 Ca1         0.7610   -0.8630    1.7530 Ca        1 MOL      1.697024
    170 O24         2.1750   -1.0310   -0.9410 oh        1 MOL     -0.909412
    171 O25         1.2830    1.6720    0.2640 oh        1 MOL     -0.909412
    172 H77         2.9560   -0.9370   -1.4870 ho        1 MOL      0.436350
    173 H78         2.2340    1.5190    0.3180 ho        1 MOL      0.436350
    174 H79         1.5850   -1.5920   -1.4430 ho        1 MOL      0.436350
    175 H80         1.1840    2.3330   -0.4230 ho        1 MOL      0.436350
    176 O26        -0.8630    1.1570    2.7010 oh        1 MOL     -0.909412
    177 H81        -0.7810    2.0140    2.2840 ho        1 MOL      0.436350
    178 H82        -1.2700    1.3350    3.5490 ho        1 MOL      0.436350
    179 O27         2.7620   -2.8430    2.0440 oh        1 MOL     -0.909412
    180 H83         3.0560   -3.6940    1.7030 ho        1 MOL      0.436350
    181 H84         3.4760   -2.5630    2.6160 ho        1 MOL      0.436350
@<TRIPOS>BOND
     1    1    2 1   
     2    1    4 1   
     3    1    5 1   
     4    1    6 1   
     5    2    3 2   
     6    2    7 1   
     7    7    8 1   
     8    7   15 1   
     9    8    9 1   
    10    8   11 1   
    11    8   16 1   
    12    9   10 2   
    13    9   19 1   
    14   11   12 1   
    15   11   17 1   
    16   11   18 1   
    17   12   13 1   
    18   12   14 1   
    19   19   20 1   
    20   19   24 1   
    21   20   21 1   
    22   20   23 1   
    23   20   25 1   
    24   21   22 2   
    25   21   29 1   
    26   23   26 1   
    27   23   27 1   
    28   23   28 1   
    29   29   30 1   
    30   29   37 1   
    31   30   31 1   
    32   30   33 1   
    33   30   38 1   
    34   31   32 2   
    35   31   41 1   
    36   33   34 1   
    37   33   39 1   
    38   33   40 1   
    39   34   35 1   
    40   34   36 1   
    41   41   42 1   
    42   41   45 1   
    43   42   43 1   
    44   42   46 1   
    45   42   47 1   
    46   43   44 2   
    47   43   48 1   
    48   48   49 1   
    49   48   56 1   
    50   49   50 1   
    51   49   52 1   
    52   49   57 1   
    53   50   51 2   
    54   50   62 1   
    55   52   53 1   
    56   52   58 1   
    57   52   59 1   
    58   53   54 1   
    59   53   55 2   
    60   54   60 1   
    61   54   61 1   
    62   62   63 1   
    63   62   66 1   
    64   63   64 1   
    65   63   67 1   
    66   63   68 1   
    67   64   65 2   
    68   64   69 1   
    69   69   70 1   
    70   69   76 1   
    71   70   71 1   
    72   70   73 1   
    73   70   77 1   
    74   71   72 2   
    75   71   83 1   
    76   73   74 1   
    77   73   75 1   
    78   73   78 1   
    79   74   80 1   
    80   74   81 1   
    81   74   82 1   
    82   75   79 1   
    83   83   84 1   
    84   83   91 1   
    85   84   85 1   
    86   84   87 1   
    87   84   92 1   
    88   85   86 2   
    89   85  102 1   
    90   87   88 1   
    91   87   89 1   
    92   87   93 1   
    93   88   90 1   
    94   88   94 1   
    95   88   95 1   
    96   89   96 1   
    97   89   97 1   
    98   89   98 1   
    99   90   99 1   
   100   90  100 1   
   101   90  101 1   
   102  102  103 1   
   103  102  110 1   
   104  103  104 1   
   105  103  106 1   
   106  103  111 1   
   107  104  105 2   
   108  104  114 1   
   109  106  107 1   
   110  106  112 1   
   111  106  113 1   
   112  107  108 1   
   113  107  109 1   
   114  114  115 1   
   115  114  125 1   
   116  115  116 1   
   117  115  118 1   
   118  115  126 1   
   119  116  117 2   
   120  116  134 1   
   121  118  119 1   
   122  118  127 1   
   123  118  128 1   
   124  119  120 ar  
   125  119  121 ar  
   126  120  122 ar  
   127  120  129 1   
   128  121  123 ar  
   129  121  130 1   
   130  122  124 ar  
   131  122  131 1   
   132  123  124 ar  
   133  123  132 1   
   134  124  133 1   
   135  134  135 1   
   136  134  140 1   
   137  135  136 1   
   138  135  138 1   
   139  135  141 1   
   140  136  137 2   
   141  136  148 1   
   142  138  139 1   
   143  138  142 1   
   144  138  143 1   
   145  139  140 1   
   146  139  144 1   
   147  139  145 1   
   148  140  146 1   
   149  140  147 1   
   150  148  149 1   
   151  148  157 1   
   152  149  150 1   
   153  149  152 1   
   154  149  158 1   
   155  150  151 2   
   156  150  163 1   
   157  152  153 1   
   158  152  159 1   
   159  152  160 1   
   160  153  154 1   
   161  153  161 1   
   162  153  162 1   
   163  154  155 1   
   164  154  156 1   
   165  163  164 1   
   166  163  168 1   
   167  164  165 1   
   168  164  166 1   
   169  164  167 1   
   170  170  172 1   
   171  170  174 1   
   172  171  173 1   
   173  171  175 1   
   174  176  177 1   
   175  176  178 1   
   176  179  180 1   
   177  179  181 1   
@<TRIPOS>SUBSTRUCTURE
     1 MOL         1 TEMP              0 ****  ****    0 ROOT
