@<TRIPOS>MOLECULE
MOL
  189   185     1     0     0
SMALL
resp


@<TRIPOS>ATOM
      1 C1          4.4420    4.0460   -3.5150 c3        1 MOL     -0.453089
      2 C2          5.1000    3.2330   -2.3320 c         1 MOL      0.820637
      3 O1          4.5990    3.0460   -1.2110 o         1 MOL     -0.656616
      4 H1          3.3570    3.9960   -3.4300 hc        1 MOL      0.109296
      5 H2          4.7630    5.0860   -3.4650 hc        1 MOL      0.109296
      6 H3          4.7520    3.6160   -4.4680 hc        1 MOL      0.109296
      7 N1          6.3630    2.9720   -2.6180 n         1 MOL     -0.705347
      8 C3          7.1140    1.8850   -1.9760 c3        1 MOL      0.256865
      9 C4          6.1430    0.6510   -1.6710 c         1 MOL      0.331644
     10 O2          5.7600    0.3270   -0.5480 o         1 MOL     -0.617944
     11 C5          8.0120    2.2760   -0.7540 c3        1 MOL     -0.115155
     12 C6          7.5730    3.4200    0.1510 c         1 MOL      0.790807
     13 O3          6.5580    3.3190    0.9220 o         1 MOL     -0.751044
     14 O4          8.3390    4.4430    0.2700 o         1 MOL     -0.751044
     15 H4          6.6960    3.3750   -3.4840 hn        1 MOL      0.340644
     16 H5          7.8290    1.5710   -2.7380 h1        1 MOL      0.027007
     17 H6          8.9790    2.6080   -1.1330 hc        1 MOL      0.007689
     18 H7          8.1280    1.4290   -0.0750 hc        1 MOL      0.007689
     19 N2          5.6980   -0.0080   -2.7200 n         1 MOL     -0.391162
     20 C7          5.0240   -1.3200   -2.8430 c3        1 MOL      0.229300
     21 C8          5.7750   -2.4610   -2.1950 c         1 MOL      0.273496
     22 O5          6.1930   -3.3320   -2.8780 o         1 MOL     -0.535058
     23 C9          3.5150   -1.2790   -2.4930 c3        1 MOL      0.369310
     24 C10         2.7550   -2.5780   -2.7900 c3        1 MOL     -0.081651
     25 C11         2.7220   -0.1540   -3.2530 c3        1 MOL     -0.335477
     26 C12         2.5570   -2.9660   -4.2770 c3        1 MOL     -0.052729
     27 H8          5.7930    0.4860   -3.5910 hn        1 MOL      0.228314
     28 H9          5.0760   -1.5380   -3.9070 h1        1 MOL     -0.016318
     29 H10         3.4660   -1.1270   -1.4150 hc        1 MOL     -0.230719
     30 H11         1.7960   -2.5430   -2.2820 hc        1 MOL      0.029173
     31 H12         3.2680   -3.4010   -2.2730 hc        1 MOL      0.029173
     32 H13         1.6840   -0.2500   -2.9410 hc        1 MOL      0.062229
     33 H14         3.1730    0.7780   -2.9040 hc        1 MOL      0.062229
     34 H15         2.8230   -0.1660   -4.3390 hc        1 MOL      0.062229
     35 H16         2.0850   -2.2160   -4.9090 hc        1 MOL     -0.001636
     36 H17         3.5610   -3.0850   -4.7020 hc        1 MOL     -0.001636
     37 H18         2.0530   -3.9160   -4.4190 hc        1 MOL     -0.001636
     38 N3          6.0400   -2.3320   -0.8940 n         1 MOL      0.056054
     39 C13         6.9540   -3.2260   -0.1730 c3        1 MOL     -0.021934
     40 C14         6.3690   -4.6270    0.0470 c         1 MOL      0.520124
     41 O6          7.1300   -5.5640   -0.1540 o         1 MOL     -0.582602
     42 C15         7.4670   -2.6260    1.1490 c3        1 MOL     -0.144318
     43 C16         8.1800   -1.2480    0.9100 c         1 MOL      0.693861
     44 O7          7.7640   -0.3860    1.7490 o         1 MOL     -0.680105
     45 O8          9.0130   -1.2340   -0.0250 o         1 MOL     -0.680105
     46 H19         5.6330   -1.5640   -0.3820 hn        1 MOL      0.173544
     47 H20         7.8040   -3.4120   -0.8260 h1        1 MOL      0.064394
     48 H21         8.2410   -3.2790    1.5360 hc        1 MOL      0.031199
     49 H22         6.6960   -2.5710    1.9190 hc        1 MOL      0.031199
     50 N4          5.1320   -4.8430    0.5210 n         1 MOL     -0.551085
     51 C17         4.1270   -3.8310    0.9780 c3        1 MOL      0.097502
     52 C18         2.9050   -4.4870    1.5490 c         1 MOL      0.578876
     53 O9          2.6390   -5.6390    1.2350 o         1 MOL     -0.574667
     54 H23         4.8080   -5.8020    0.5780 hn        1 MOL      0.299463
     55 H24         3.6770   -3.3540    0.1110 h1        1 MOL      0.077876
     56 H25         4.6910   -3.2050    1.6750 h1        1 MOL      0.077876
     57 N5          2.1250   -3.7960    2.4140 n         1 MOL     -0.598501
     58 C19         2.1930   -2.3720    2.9620 c3        1 MOL      0.204579
     59 C20         2.4170   -1.3050    1.8480 c         1 MOL      0.147994
     60 O10         3.5020   -0.7710    1.6990 o         1 MOL     -0.468470
     61 C21         3.1930   -2.3640    4.0870 c3        1 MOL     -0.398709
     62 C22         3.6390   -0.9810    4.7280 c         1 MOL      0.727952
     63 O11         2.7380   -0.0940    4.8410 o         1 MOL     -0.681066
     64 O12         4.8290   -0.7800    5.0270 o         1 MOL     -0.681066
     65 H26         1.2830   -4.2920    2.6610 hn        1 MOL      0.319656
     66 H27         1.2510   -2.1700    3.4630 h1        1 MOL      0.091976
     67 H28         4.1290   -2.7470    3.6780 hc        1 MOL      0.102508
     68 H29         2.7690   -3.0560    4.8210 hc        1 MOL      0.102508
     69 N6          1.4700   -0.9310    1.0330 n         1 MOL     -0.038336
     70 C23         0.0250   -1.2340    1.2950 c3        1 MOL      0.009986
     71 C24        -0.4900   -2.5770    0.6210 c         1 MOL      0.339120
     72 O13         0.2820   -3.1870   -0.1580 o         1 MOL     -0.463861
     73 H30         1.6270   -0.1670    0.3870 hn        1 MOL      0.218402
     74 H31        -0.5980   -0.4280    0.8960 h1        1 MOL      0.047651
     75 H32        -0.0990   -1.3650    2.3740 h1        1 MOL      0.047651
     76 N7         -1.6650   -3.0180    0.8240 n         1 MOL     -0.282944
     77 C25        -2.3130   -4.2360    0.3180 c3        1 MOL     -0.014069
     78 C26        -3.0170   -4.0370   -1.0440 c         1 MOL      0.375632
     79 O14        -3.1370   -5.0270   -1.7860 o         1 MOL     -0.522355
     80 C27        -3.1420   -4.8480    1.4410 c3        1 MOL      0.015737
     81 C28        -4.3280   -3.9550    1.8830 c3        1 MOL     -0.536038
     82 C29        -5.3970   -3.5410    0.8680 c         1 MOL      0.573534
     83 N8         -6.0750   -4.4980    0.2650 n         1 MOL     -0.748771
     84 O15        -5.4820   -2.4110    0.4650 o         1 MOL     -0.383930
     85 H33        -2.2990   -2.3830    1.2870 hn        1 MOL      0.230295
     86 H34        -1.4960   -4.9150    0.0810 h1        1 MOL      0.142822
     87 H35        -2.5080   -5.0780    2.3020 hc        1 MOL      0.044916
     88 H36        -3.6300   -5.7420    1.0720 hc        1 MOL      0.044916
     89 H37        -3.9750   -3.0030    2.2920 hc        1 MOL      0.185672
     90 H38        -4.9480   -4.4760    2.6170 hc        1 MOL      0.185672
     91 H39        -5.9550   -5.4490    0.5890 hn        1 MOL      0.366630
     92 H40        -6.6910   -4.3950   -0.5200 hn        1 MOL      0.366630
     93 N9         -3.2980   -2.7900   -1.4530 n         1 MOL     -0.168850
     94 C30        -3.5880   -2.3760   -2.8560 c3        1 MOL     -0.122066
     95 C31        -4.9770   -1.6100   -3.0870 c         1 MOL      0.355962
     96 O16        -5.3190   -1.2700   -4.2060 o         1 MOL     -0.531632
     97 C32        -2.3810   -1.6150   -3.3980 c3        1 MOL      0.216900
     98 C33        -1.1730   -2.5600   -3.7060 c3        1 MOL     -0.211406
     99 C34        -1.8390   -0.5110   -2.5560 c3        1 MOL     -0.211406
    100 H41        -3.3290   -2.1370   -0.6850 hn        1 MOL      0.171349
    101 H42        -3.7080   -3.2670   -3.4850 h1        1 MOL      0.124321
    102 H43        -2.6630   -1.2010   -4.3700 hc        1 MOL     -0.011101
    103 H44        -0.4270   -1.9600   -4.2250 hc        1 MOL      0.057898
    104 H45        -0.7980   -3.0370   -2.7940 hc        1 MOL      0.057898
    105 H46        -1.4440   -3.2680   -4.4920 hc        1 MOL      0.057898
    106 H47        -1.1840   -0.7280   -1.7100 hc        1 MOL      0.057898
    107 H48        -1.2550    0.1020   -3.2460 hc        1 MOL      0.057898
    108 H49        -2.6350    0.0310   -2.0590 hc        1 MOL      0.057898
    109 N10        -5.8160   -1.3380   -2.0590 n         1 MOL     -0.050111
    110 C35        -7.1250   -0.7240   -2.1240 c3        1 MOL     -0.026689
    111 C36        -7.1900    0.7130   -1.5990 c         1 MOL      0.498798
    112 O17        -8.1480    1.3800   -1.9310 o         1 MOL     -0.553038
    113 C37        -8.2540   -1.5920   -1.3520 c3        1 MOL     -0.283960
    114 C38        -8.4700   -2.9750   -2.0010 c         1 MOL      0.650680
    115 N11        -8.6370   -3.2010   -3.2770 n         1 MOL     -0.773312
    116 O18        -8.3780   -3.9530   -1.3080 o         1 MOL     -0.577676
    117 H50        -5.4660   -1.6410   -1.1530 hn        1 MOL      0.109356
    118 H51        -7.4320   -0.6150   -3.1670 h1        1 MOL      0.070612
    119 H52        -9.1850   -1.0190   -1.3380 hc        1 MOL      0.090552
    120 H53        -7.9280   -1.7640   -0.3240 hc        1 MOL      0.090552
    121 H54        -8.5500   -2.4400   -3.9280 hn        1 MOL      0.371046
    122 H55        -8.8700   -4.1580   -3.4990 hn        1 MOL      0.371046
    123 N12        -6.1870    1.2160   -0.8900 n         1 MOL     -0.207583
    124 C39        -6.1140    2.5520   -0.2500 c3        1 MOL     -0.003287
    125 C40        -4.7170    2.8830    0.1770 c         1 MOL      0.500821
    126 O19        -3.7840    2.1020    0.1190 o         1 MOL     -0.358228
    127 C41        -7.1180    2.5480    0.9460 c3        1 MOL     -0.044061
    128 C42        -7.0460    1.2760    1.8300 ca        1 MOL     -0.105805
    129 C43        -8.2640    0.4930    1.9040 ca        1 MOL     -0.010265
    130 C44        -5.9100    0.6770    2.4520 ca        1 MOL     -0.010265
    131 C45        -8.3570   -0.7660    2.5180 ca        1 MOL     -0.338839
    132 C46        -5.9250   -0.6060    2.9640 ca        1 MOL     -0.338839
    133 C47        -7.1680   -1.2900    3.0900 ca        1 MOL      0.441175
    134 O20        -7.1680   -2.4140    3.8140 oh        1 MOL     -0.510327
    135 H56        -5.3010    0.7380   -0.9510 hn        1 MOL      0.099816
    136 H57        -6.3740    3.2860   -1.0090 h1        1 MOL      0.059834
    137 H58        -8.1020    2.6270    0.4850 hc        1 MOL      0.040399
    138 H59        -6.9520    3.4630    1.5100 hc        1 MOL      0.040399
    139 H60        -9.1270    1.0100    1.5050 ha        1 MOL      0.075941
    140 H61        -4.9850    1.2260    2.3660 ha        1 MOL      0.075941
    141 H62        -9.2840   -1.3270    2.4710 ha        1 MOL      0.140196
    142 H63        -5.0640   -1.0780    3.4130 ha        1 MOL      0.140196
    143 H64        -7.9710   -2.9290    3.8970 ho        1 MOL      0.361773
    144 N13        -4.5500    4.1110    0.6780 n         1 MOL     -0.556005
    145 C48        -3.4500    4.8540    1.2020 c3        1 MOL      0.084487
    146 C49        -2.3130    5.1500    0.2290 c         1 MOL      0.354392
    147 O21        -1.6580    6.1660    0.3230 o         1 MOL     -0.524887
    148 C50        -2.9340    4.2230    2.4970 c3        1 MOL     -0.084922
    149 C51        -3.9650    4.0770    3.5730 c3        1 MOL      0.000494
    150 C52        -3.3720    3.6420    4.8870 c         1 MOL      0.557188
    151 O22        -2.9650    4.4670    5.7180 o         1 MOL     -0.677856
    152 O23        -3.4920    2.4020    5.1690 o         1 MOL     -0.677856
    153 H65        -5.4410    4.5920    0.7750 hn        1 MOL      0.305530
    154 H66        -3.8430    5.8400    1.4390 h1        1 MOL      0.062439
    155 H67        -2.1960    4.9230    2.9050 hc        1 MOL      0.074026
    156 H68        -2.5140    3.2460    2.2800 hc        1 MOL      0.074026
    157 H69        -4.7240    3.3340    3.3270 hc        1 MOL     -0.018242
    158 H70        -4.4460    5.0460    3.7140 hc        1 MOL     -0.018242
    159 N14        -1.9840    4.2500   -0.6570 n         1 MOL     -0.136587
    160 C53        -0.8990    4.3300   -1.5930 c3        1 MOL     -0.081359
    161 C54        -1.1410    5.1700   -2.8830 c         1 MOL      0.511504
    162 O24        -0.2150    5.5930   -3.5510 o         1 MOL     -0.532230
    163 C55        -0.4720    2.9780   -2.0590 c3        1 MOL     -0.052709
    164 C56        -0.0220    2.0470   -0.9680 c3        1 MOL      0.230027
    165 C57         1.1590    2.4640   -0.0880 c         1 MOL      0.496468
    166 O25         0.9550    3.3550    0.7290 o         1 MOL     -0.570069
    167 O26         2.2340    1.7640   -0.1500 o         1 MOL     -0.570069
    168 H71        -2.5760    3.4260   -0.6600 hn        1 MOL      0.109235
    169 H72         0.0230    4.7230   -1.1710 h1        1 MOL      0.120918
    170 H73         0.4130    3.1030   -2.6770 hc        1 MOL     -0.017194
    171 H74        -1.2730    2.4450   -2.5710 hc        1 MOL     -0.017194
    172 H75         0.2680    1.0700   -1.3640 hc        1 MOL     -0.083825
    173 H76        -0.8110    1.8150   -0.2550 hc        1 MOL     -0.083825
    174 N15        -2.4110    5.4840   -2.9640 n         1 MOL     -0.221633
    175 C58        -2.9300    6.4020   -3.9330 c3        1 MOL     -0.299464
    176 H77        -4.0140    6.2980   -3.9880 h1        1 MOL      0.109156
    177 H78        -2.6780    7.4220   -3.6390 h1        1 MOL      0.109156
    178 H79        -2.4950    6.1870   -4.9090 h1        1 MOL      0.109156
    179 H80        -3.0420    5.1520   -2.2570 hn        1 MOL      0.221413
    180 Ca1         4.3750    1.8070    1.0490 Ca        1 MOL      1.810504
    181 O27         5.6930    0.8300    3.0500 oh        1 MOL     -0.961886
    182 H81         5.3970    0.3780    3.8440 ho        1 MOL      0.445644
    183 H82         6.4630    0.3340    2.7740 ho        1 MOL      0.445644
    184 O28         3.3420    4.2620    1.0740 oh        1 MOL     -0.961886
    185 H83         2.4590    3.9210    0.9410 ho        1 MOL      0.445644
    186 H84         3.3550    5.0890    0.5960 ho        1 MOL      0.445644
    187 O29         2.3510    1.7150    2.9660 oh        1 MOL     -0.961886
    188 H85         1.6080    2.1360    3.3900 ho        1 MOL      0.445644
    189 H86         2.7110    1.1330    3.6300 ho        1 MOL      0.445644
@<TRIPOS>BOND
     1    1    2 1   
     2    1    4 1   
     3    1    5 1   
     4    1    6 1   
     5    2    3 2   
     6    2    7 1   
     7    7    8 1   
     8    7   15 1   
     9    8    9 1   
    10    8   11 1   
    11    8   16 1   
    12    9   10 2   
    13    9   19 1   
    14   11   12 1   
    15   11   17 1   
    16   11   18 1   
    17   12   13 1   
    18   12   14 1   
    19   19   20 1   
    20   19   27 1   
    21   20   21 1   
    22   20   23 1   
    23   20   28 1   
    24   21   22 2   
    25   21   38 1   
    26   23   24 1   
    27   23   25 1   
    28   23   29 1   
    29   24   26 1   
    30   24   30 1   
    31   24   31 1   
    32   25   32 1   
    33   25   33 1   
    34   25   34 1   
    35   26   35 1   
    36   26   36 1   
    37   26   37 1   
    38   38   39 1   
    39   38   46 1   
    40   39   40 1   
    41   39   42 1   
    42   39   47 1   
    43   40   41 2   
    44   40   50 1   
    45   42   43 1   
    46   42   48 1   
    47   42   49 1   
    48   43   44 1   
    49   43   45 1   
    50   50   51 1   
    51   50   54 1   
    52   51   52 1   
    53   51   55 1   
    54   51   56 1   
    55   52   53 2   
    56   52   57 1   
    57   57   58 1   
    58   57   65 1   
    59   58   59 1   
    60   58   61 1   
    61   58   66 1   
    62   59   60 2   
    63   59   69 1   
    64   61   62 1   
    65   61   67 1   
    66   61   68 1   
    67   62   63 1   
    68   62   64 1   
    69   69   70 1   
    70   69   73 1   
    71   70   71 1   
    72   70   74 1   
    73   70   75 1   
    74   71   72 2   
    75   71   76 1   
    76   76   77 1   
    77   76   85 1   
    78   77   78 1   
    79   77   80 1   
    80   77   86 1   
    81   78   79 2   
    82   78   93 1   
    83   80   81 1   
    84   80   87 1   
    85   80   88 1   
    86   81   82 1   
    87   81   89 1   
    88   81   90 1   
    89   82   83 1   
    90   82   84 2   
    91   83   91 1   
    92   83   92 1   
    93   93   94 1   
    94   93  100 1   
    95   94   95 1   
    96   94   97 1   
    97   94  101 1   
    98   95   96 2   
    99   95  109 1   
   100   97   98 1   
   101   97   99 1   
   102   97  102 1   
   103   98  103 1   
   104   98  104 1   
   105   98  105 1   
   106   99  106 1   
   107   99  107 1   
   108   99  108 1   
   109  109  110 1   
   110  109  117 1   
   111  110  111 1   
   112  110  113 1   
   113  110  118 1   
   114  111  112 2   
   115  111  123 1   
   116  113  114 1   
   117  113  119 1   
   118  113  120 1   
   119  114  115 1   
   120  114  116 2   
   121  115  121 1   
   122  115  122 1   
   123  123  124 1   
   124  123  135 1   
   125  124  125 1   
   126  124  127 1   
   127  124  136 1   
   128  125  126 2   
   129  125  144 1   
   130  127  128 1   
   131  127  137 1   
   132  127  138 1   
   133  128  129 ar  
   134  128  130 ar  
   135  129  131 ar  
   136  129  139 1   
   137  130  132 ar  
   138  130  140 1   
   139  131  133 ar  
   140  131  141 1   
   141  132  133 ar  
   142  132  142 1   
   143  133  134 1   
   144  134  143 1   
   145  144  145 1   
   146  144  153 1   
   147  145  146 1   
   148  145  148 1   
   149  145  154 1   
   150  146  147 2   
   151  146  159 1   
   152  148  149 1   
   153  148  155 1   
   154  148  156 1   
   155  149  150 1   
   156  149  157 1   
   157  149  158 1   
   158  150  151 1   
   159  150  152 1   
   160  159  160 1   
   161  159  168 1   
   162  160  161 1   
   163  160  163 1   
   164  160  169 1   
   165  161  162 2   
   166  161  174 1   
   167  163  164 1   
   168  163  170 1   
   169  163  171 1   
   170  164  165 1   
   171  164  172 1   
   172  164  173 1   
   173  165  166 1   
   174  165  167 1   
   175  174  175 1   
   176  174  179 1   
   177  175  176 1   
   178  175  177 1   
   179  175  178 1   
   180  181  182 1   
   181  181  183 1   
   182  184  185 1   
   183  184  186 1   
   184  187  188 1   
   185  187  189 1   
@<TRIPOS>SUBSTRUCTURE
     1 MOL         1 TEMP              0 ****  ****    0 ROOT
