@<TRIPOS>MOLECULE
MOL
  178   175     1     0     0
SMALL
resp


@<TRIPOS>ATOM
      1 C1        -10.9010    7.0560    0.8150 c3        1 MOL     -0.340349
      2 C2        -10.2040    5.9360    0.1230 c         1 MOL      0.678625
      3 O1         -9.3210    6.1980   -0.6900 o         1 MOL     -0.580680
      4 H1        -11.3750    6.6840    1.7230 hc        1 MOL      0.076731
      5 H2        -10.1780    7.8300    1.0740 hc        1 MOL      0.076731
      6 H3        -11.6620    7.4750    0.1550 hc        1 MOL      0.076731
      7 N1        -10.5400    4.6810    0.2670 n         1 MOL     -0.425379
      8 C3        -11.6480    4.1470    0.9160 c3        1 MOL      0.206477
      9 C4        -12.4270    3.2060   -0.0510 c         1 MOL      0.206447
     10 O2        -12.3510    3.3410   -1.3170 o         1 MOL     -0.406165
     11 C5        -11.1280    3.4540    2.1790 c3        1 MOL     -0.267838
     12 C6        -10.2210    2.3170    1.9810 c         1 MOL      0.664061
     13 O3        -10.6160    1.2720    1.4670 o         1 MOL     -0.707683
     14 O4         -9.0070    2.3070    2.2740 o         1 MOL     -0.707683
     15 H4        -10.0730    4.0340   -0.3500 hn        1 MOL      0.288682
     16 H5        -12.3070    4.8590    1.4050 h1        1 MOL      0.038050
     17 H6        -12.0260    3.1220    2.6920 hc        1 MOL      0.048506
     18 H7        -10.7060    4.1800    2.8770 hc        1 MOL      0.048506
     19 N2        -13.1220    2.1410    0.4530 n         1 MOL     -0.264748
     20 C7        -13.7970    1.1340   -0.3530 c3        1 MOL      0.282874
     21 C8        -13.0390    0.3750   -1.4260 c         1 MOL      0.354693
     22 O5        -13.5250   -0.0140   -2.4300 o         1 MOL     -0.538765
     23 C9        -15.1080    1.7610   -0.7850 c3        1 MOL     -0.236499
     24 H8        -13.2790    2.0900    1.4530 hn        1 MOL      0.225446
     25 H9        -14.1210    0.4140    0.3940 h1        1 MOL      0.005410
     26 H10       -15.1480    2.2810   -1.7370 hc        1 MOL      0.050982
     27 H11       -15.7950    0.9200   -0.9080 hc        1 MOL      0.050982
     28 H12       -15.5320    2.4280   -0.0350 hc        1 MOL      0.050982
     29 N3        -11.7560    0.2710   -1.2220 n         1 MOL     -0.094801
     30 C10       -10.7920   -0.2270   -2.2440 c3        1 MOL      0.118257
     31 C11        -9.9320   -1.2640   -1.5540 c         1 MOL      0.203725
     32 O6        -10.0860   -1.5010   -0.3540 o         1 MOL     -0.424067
     33 C12        -9.9880    0.9270   -2.8530 c3        1 MOL     -0.088305
     34 C13        -9.4320    1.7710   -1.7210 c         1 MOL      0.694735
     35 O7         -8.6930    1.2650   -0.8390 o         1 MOL     -0.641735
     36 O8         -9.5450    3.0220   -1.8040 o         1 MOL     -0.641735
     37 H13       -11.4120    0.6810   -0.3740 hn        1 MOL     -0.034640
     38 H14       -11.3240   -0.6320   -3.1070 h1        1 MOL      0.051319
     39 H15       -10.5160    1.5660   -3.5570 hc        1 MOL      0.033103
     40 H16        -9.1260    0.5890   -3.4220 hc        1 MOL      0.033103
     41 N4         -9.1580   -2.0310   -2.3220 n         1 MOL     -0.290748
     42 C14        -8.2990   -3.1210   -1.7950 c3        1 MOL     -0.189222
     43 C15        -7.1050   -2.5360   -1.0080 c         1 MOL      0.547303
     44 O9         -7.0510   -1.3220   -0.7300 o         1 MOL     -0.508346
     45 H17        -9.2240   -1.8870   -3.3230 hn        1 MOL      0.279108
     46 H18        -8.0880   -3.8450   -2.5790 h1        1 MOL      0.124865
     47 H19        -8.8640   -3.6370   -1.0130 h1        1 MOL      0.124865
     48 N5         -6.2090   -3.4140   -0.5700 n         1 MOL     -0.476843
     49 C16        -5.2500   -3.1210    0.5020 c3        1 MOL      0.091671
     50 C17        -3.9200   -3.7620    0.2370 c         1 MOL      0.679872
     51 O10        -3.8930   -4.9580    0.0540 o         1 MOL     -0.526181
     52 C18        -5.7650   -3.8450    1.7500 c3        1 MOL     -0.346911
     53 C19        -7.1650   -3.4820    2.1280 c         1 MOL      0.674742
     54 N6         -8.0710   -4.4460    2.1260 n         1 MOL     -0.768846
     55 O11        -7.6110   -2.3710    2.2150 o         1 MOL     -0.633050
     56 H20        -6.2710   -4.3140   -1.0100 hn        1 MOL      0.291100
     57 H21        -5.1150   -2.0670    0.7500 h1        1 MOL      0.050094
     58 H22        -5.0790   -3.5610    2.5530 hc        1 MOL      0.104432
     59 H23        -5.6280   -4.9090    1.6140 hc        1 MOL      0.104432
     60 H24        -7.7750   -5.3830    1.9160 hn        1 MOL      0.354037
     61 H25        -9.0330   -4.3000    2.3680 hn        1 MOL      0.354037
     62 N7         -2.8320   -2.9990    0.2510 n         1 MOL     -0.629452
     63 C20        -1.4340   -3.2950    0.0230 c3        1 MOL      0.017537
     64 C21        -0.9850   -3.5200   -1.4190 c         1 MOL      0.643640
     65 O12        -1.7410   -3.3550   -2.4480 o         1 MOL     -0.562813
     66 H26        -2.9420   -2.0230    0.4950 hn        1 MOL      0.357803
     67 H27        -1.2110   -4.2380    0.5290 h1        1 MOL      0.079489
     68 H28        -0.8470   -2.4760    0.4290 h1        1 MOL      0.079489
     69 N8          0.2430   -3.9470   -1.6650 n         1 MOL     -0.584836
     70 C22         1.3670   -4.0120   -0.7230 c3        1 MOL     -0.000175
     71 C23         2.1720   -2.7130   -0.7360 c         1 MOL      0.509945
     72 O13         2.5470   -2.2180   -1.8170 o         1 MOL     -0.484639
     73 C24         2.3400   -5.1480   -1.1440 c3        1 MOL      0.438771
     74 C25         3.3840   -5.3790   -0.1430 c3        1 MOL     -0.209541
     75 O14         1.5300   -6.3010   -1.2550 oh        1 MOL     -0.643842
     76 H29         0.4590   -3.8970   -2.6490 hn        1 MOL      0.335089
     77 H30         1.0180   -4.1100    0.3100 h1        1 MOL      0.033984
     78 H31         2.8740   -4.8610   -2.0520 h1        1 MOL      0.002712
     79 H32         0.7960   -6.1060   -1.8340 ho        1 MOL      0.370437
     80 H33         4.1150   -4.5620   -0.2210 hc        1 MOL      0.064852
     81 H34         2.8520   -5.2910    0.8030 hc        1 MOL      0.064852
     82 H35         3.7870   -6.3920   -0.2320 hc        1 MOL      0.064852
     83 N9          2.4760   -2.1150    0.4490 n         1 MOL     -0.497166
     84 C26         3.6390   -1.3150    0.6370 c3        1 MOL      0.023788
     85 C27         4.8170   -2.1450    1.1450 c         1 MOL      0.553843
     86 O15         4.5960   -3.0930    1.9340 o         1 MOL     -0.615218
     87 C28         3.4530   -0.0200    1.5510 c3        1 MOL      0.133157
     88 C29         3.1070   -0.4470    3.0470 c3        1 MOL      0.179577
     89 C30         2.3050    0.8400    1.0250 c3        1 MOL     -0.330029
     90 C31         2.6300    0.5530    4.0710 c3        1 MOL     -0.315925
     91 H36         2.0660   -2.5890    1.2440 hn        1 MOL      0.250528
     92 H37         3.9810   -0.9580   -0.3340 h1        1 MOL      0.140538
     93 H38         4.4350    0.4780    1.5640 hc        1 MOL     -0.000508
     94 H39         3.9190   -1.0740    3.4330 hc        1 MOL     -0.030657
     95 H40         2.2930   -1.1670    2.9630 hc        1 MOL     -0.030657
     96 H41         2.6350    1.3470    0.1170 hc        1 MOL      0.082184
     97 H42         1.4170    0.2070    0.9780 hc        1 MOL      0.082184
     98 H43         2.0070    1.7080    1.5950 hc        1 MOL      0.082184
     99 H44         1.8360    1.1560    3.6390 hc        1 MOL      0.063574
    100 H45         2.3810    0.0610    5.0090 hc        1 MOL      0.063574
    101 H46         3.4810    1.1640    4.3870 hc        1 MOL      0.063574
    102 N10         6.0700   -1.8770    0.7420 n         1 MOL     -0.420046
    103 C32         6.5030   -0.8670   -0.2650 c3        1 MOL     -0.280105
    104 C33         7.8140   -0.1870    0.1230 c         1 MOL      0.604938
    105 O16         7.7470    0.9920    0.5060 o         1 MOL     -0.548807
    106 C34         6.3920   -1.4120   -1.7160 c3        1 MOL      0.134521
    107 C35         6.9230   -2.8100   -1.9570 c         1 MOL      0.697489
    108 O17         6.4550   -3.4850   -2.8920 o         1 MOL     -0.708236
    109 O18         7.9240   -3.2110   -1.3160 o         1 MOL     -0.708236
    110 H47         6.7420   -2.5820    1.0420 hn        1 MOL      0.285045
    111 H48         5.7360   -0.0960   -0.1700 h1        1 MOL      0.116013
    112 H49         6.8440   -0.6760   -2.3970 hc        1 MOL     -0.016638
    113 H50         5.3520   -1.4550   -2.0270 hc        1 MOL     -0.016638
    114 N11         8.9770   -0.8330    0.0230 n         1 MOL     -0.445091
    115 C36        10.2430   -0.3240    0.3960 c3        1 MOL      0.513469
    116 C37        11.2310   -0.1340   -0.7290 c         1 MOL      0.212934
    117 O19        11.3230   -0.9510   -1.6820 o         1 MOL     -0.474322
    118 C38        10.7670   -1.2020    1.5590 c3        1 MOL     -0.175589
    119 C39        12.0640   -0.8210    2.2200 ca        1 MOL      0.151062
    120 C40        13.2410   -1.1940    1.5160 ca        1 MOL     -0.235824
    121 C41        12.1820   -0.1930    3.4910 ca        1 MOL     -0.235824
    122 C42        14.5050   -0.9760    2.1540 ca        1 MOL     -0.038134
    123 C43        13.4630   -0.1120    4.1100 ca        1 MOL     -0.038134
    124 C44        14.6160   -0.5520    3.4580 ca        1 MOL     -0.198087
    125 H51         9.0890   -1.6360   -0.5710 hn        1 MOL      0.219054
    126 H52        10.0240    0.6840    0.7580 h1        1 MOL     -0.079891
    127 H53        10.7470   -2.2610    1.3100 hc        1 MOL      0.051357
    128 H54         9.9840   -1.1190    2.3110 hc        1 MOL      0.051357
    129 H55        13.1520   -1.6640    0.5490 ha        1 MOL      0.138252
    130 H56        11.2720    0.0650    4.0110 ha        1 MOL      0.138252
    131 H57        15.4220   -1.2290    1.6380 ha        1 MOL      0.079325
    132 H58        13.5430    0.3170    5.0940 ha        1 MOL      0.079325
    133 H59        15.5730   -0.3350    3.9190 ha        1 MOL      0.110953
    134 N12        12.1490    0.8460   -0.5610 n         1 MOL      0.002196
    135 C45        12.2750    1.9700    0.4580 c3        1 MOL      0.419540
    136 C46        11.1350    2.9630    0.3950 c         1 MOL      0.235727
    137 O20        10.5730    3.3110    1.3930 o         1 MOL     -0.530173
    138 C47        13.5530    2.7230    0.1960 c3        1 MOL     -0.184504
    139 C48        14.4390    1.6660   -0.4950 c3        1 MOL      0.030110
    140 C49        13.3700    0.8970   -1.3770 c3        1 MOL     -0.272362
    141 H60        12.3420    1.5580    1.4640 h1        1 MOL     -0.044677
    142 H61        13.3840    3.6030   -0.4370 hc        1 MOL      0.033538
    143 H62        13.9270    2.9100    1.1970 hc        1 MOL      0.033538
    144 H63        15.3190    2.0650   -0.9910 hc        1 MOL      0.015935
    145 H64        14.8070    0.9870    0.2730 hc        1 MOL      0.015935
    146 H65        13.2720    1.4560   -2.3040 h1        1 MOL      0.099726
    147 H66        13.8070   -0.0720   -1.6210 h1        1 MOL      0.099726
    148 N13        10.6750    3.2220   -0.8480 n         1 MOL     -0.210467
    149 C50         9.3740    3.9490   -1.0070 c3        1 MOL      0.157309
    150 C51         9.7260    5.4810   -0.8780 c         1 MOL      0.328382
    151 O21        10.4100    6.0340   -1.7180 o         1 MOL     -0.563205
    152 C52         8.7860    3.5630   -2.3930 c3        1 MOL      0.045791
    153 C53         8.3740    2.0910   -2.5640 c3        1 MOL     -0.098105
    154 C54         7.7790    1.7550   -3.9090 c         1 MOL      0.760031
    155 O22         6.6200    1.3800   -4.0070 o         1 MOL     -0.701674
    156 O23         8.4550    1.9810   -4.9290 o         1 MOL     -0.701674
    157 H67        11.1910    2.9640   -1.6780 hn        1 MOL      0.250661
    158 H68         8.6780    3.6530   -0.2100 h1        1 MOL      0.087458
    159 H69         9.6160    3.5850   -3.0990 hc        1 MOL     -0.034128
    160 H70         7.9970    4.2650   -2.6560 hc        1 MOL     -0.034128
    161 H71         7.6290    2.0300   -1.7690 hc        1 MOL     -0.012479
    162 H72         9.2080    1.4260   -2.3750 hc        1 MOL     -0.012479
    163 N14         9.5850    6.1760    0.2360 n         1 MOL     -0.218294
    164 C55         8.9170    5.8230    1.5350 c3        1 MOL     -0.204963
    165 H73         7.9170    6.2550    1.5580 h1        1 MOL      0.088295
    166 H74         8.8460    4.7390    1.6260 h1        1 MOL      0.088295
    167 H75         9.5030    6.2190    2.3650 h1        1 MOL      0.088295
    168 H76         9.9450    7.1110    0.1250 hn        1 MOL      0.229378
    169 Ca1        -8.5100   -0.0860    1.2870 Ca        1 MOL      1.786527
    170 O24        -6.0850    0.8850    1.0850 oh        1 MOL     -0.873887
    171 H77        -5.5410    1.0940    1.8490 ho        1 MOL      0.422273
    172 H78        -5.6020    1.2500    0.3480 ho        1 MOL      0.422273
    173 O25        -7.7270    0.0900    3.8150 oh        1 MOL     -0.873887
    174 H79        -7.4750    0.8670    4.3200 ho        1 MOL      0.422273
    175 H80        -7.5410   -0.6410    4.3980 ho        1 MOL      0.422273
    176 O26       -10.2780   -1.5600    2.7060 oh        1 MOL     -0.873887
    177 H81       -10.4410   -1.1030    3.5320 ho        1 MOL      0.422273
    178 H82       -10.4490   -2.4860    2.9080 ho        1 MOL      0.422273
@<TRIPOS>BOND
     1    1    2 1   
     2    1    4 1   
     3    1    5 1   
     4    1    6 1   
     5    2    3 2   
     6    2    7 1   
     7    7    8 1   
     8    7   15 1   
     9    8    9 1   
    10    8   11 1   
    11    8   16 1   
    12    9   10 2   
    13    9   19 1   
    14   11   12 1   
    15   11   17 1   
    16   11   18 1   
    17   12   13 1   
    18   12   14 1   
    19   19   20 1   
    20   19   24 1   
    21   20   21 1   
    22   20   23 1   
    23   20   25 1   
    24   21   22 2   
    25   21   29 1   
    26   23   26 1   
    27   23   27 1   
    28   23   28 1   
    29   29   30 1   
    30   29   37 1   
    31   30   31 1   
    32   30   33 1   
    33   30   38 1   
    34   31   32 2   
    35   31   41 1   
    36   33   34 1   
    37   33   39 1   
    38   33   40 1   
    39   34   35 1   
    40   34   36 1   
    41   41   42 1   
    42   41   45 1   
    43   42   43 1   
    44   42   46 1   
    45   42   47 1   
    46   43   44 2   
    47   43   48 1   
    48   48   49 1   
    49   48   56 1   
    50   49   50 1   
    51   49   52 1   
    52   49   57 1   
    53   50   51 2   
    54   50   62 1   
    55   52   53 1   
    56   52   58 1   
    57   52   59 1   
    58   53   54 1   
    59   53   55 2   
    60   54   60 1   
    61   54   61 1   
    62   62   63 1   
    63   62   66 1   
    64   63   64 1   
    65   63   67 1   
    66   63   68 1   
    67   64   65 2   
    68   64   69 1   
    69   69   70 1   
    70   69   76 1   
    71   70   71 1   
    72   70   73 1   
    73   70   77 1   
    74   71   72 2   
    75   71   83 1   
    76   73   74 1   
    77   73   75 1   
    78   73   78 1   
    79   74   80 1   
    80   74   81 1   
    81   74   82 1   
    82   75   79 1   
    83   83   84 1   
    84   83   91 1   
    85   84   85 1   
    86   84   87 1   
    87   84   92 1   
    88   85   86 2   
    89   85  102 1   
    90   87   88 1   
    91   87   89 1   
    92   87   93 1   
    93   88   90 1   
    94   88   94 1   
    95   88   95 1   
    96   89   96 1   
    97   89   97 1   
    98   89   98 1   
    99   90   99 1   
   100   90  100 1   
   101   90  101 1   
   102  102  103 1   
   103  102  110 1   
   104  103  104 1   
   105  103  106 1   
   106  103  111 1   
   107  104  105 2   
   108  104  114 1   
   109  106  107 1   
   110  106  112 1   
   111  106  113 1   
   112  107  108 1   
   113  107  109 1   
   114  114  115 1   
   115  114  125 1   
   116  115  116 1   
   117  115  118 1   
   118  115  126 1   
   119  116  117 2   
   120  116  134 1   
   121  118  119 1   
   122  118  127 1   
   123  118  128 1   
   124  119  120 ar  
   125  119  121 ar  
   126  120  122 ar  
   127  120  129 1   
   128  121  123 ar  
   129  121  130 1   
   130  122  124 ar  
   131  122  131 1   
   132  123  124 ar  
   133  123  132 1   
   134  124  133 1   
   135  134  135 1   
   136  134  140 1   
   137  135  136 1   
   138  135  138 1   
   139  135  141 1   
   140  136  137 2   
   141  136  148 1   
   142  138  139 1   
   143  138  142 1   
   144  138  143 1   
   145  139  140 1   
   146  139  144 1   
   147  139  145 1   
   148  140  146 1   
   149  140  147 1   
   150  148  149 1   
   151  148  157 1   
   152  149  150 1   
   153  149  152 1   
   154  149  158 1   
   155  150  151 2   
   156  150  163 1   
   157  152  153 1   
   158  152  159 1   
   159  152  160 1   
   160  153  154 1   
   161  153  161 1   
   162  153  162 1   
   163  154  155 1   
   164  154  156 1   
   165  163  164 1   
   166  163  168 1   
   167  164  165 1   
   168  164  166 1   
   169  164  167 1   
   170  170  171 1   
   171  170  172 1   
   172  173  174 1   
   173  173  175 1   
   174  176  177 1   
   175  176  178 1   
@<TRIPOS>SUBSTRUCTURE
     1 MOL         1 TEMP              0 ****  ****    0 ROOT
