@<TRIPOS>MOLECULE
MOL
  184   179     1     0     0
SMALL
resp


@<TRIPOS>ATOM
      1 C1         -2.7450   -2.7050   -4.3050 c3        1 MOL     -0.352822
      2 C2         -4.0540   -2.0810   -3.8480 c         1 MOL      0.740572
      3 O1         -4.1130   -1.1140   -3.0920 o         1 MOL     -0.608446
      4 H1         -2.7740   -2.8580   -5.3850 hc        1 MOL      0.082784
      5 H2         -1.9180   -2.0410   -4.0540 hc        1 MOL      0.082784
      6 H3         -2.6070   -3.6650   -3.8070 hc        1 MOL      0.082784
      7 N1         -5.2120   -2.7760   -4.0200 n         1 MOL     -0.747150
      8 C3         -6.4410   -2.1250   -3.6360 c3        1 MOL      0.497841
      9 C4         -6.7950   -2.2150   -2.0920 c         1 MOL      0.417417
     10 O2         -6.9030   -3.2510   -1.4340 o         1 MOL     -0.563424
     11 C5         -7.5680   -2.6480   -4.5600 c3        1 MOL     -0.358254
     12 C6         -8.8940   -1.8810   -4.4370 c         1 MOL      0.767247
     13 O3         -9.9230   -2.3740   -5.0390 o         1 MOL     -0.747894
     14 O4         -8.9520   -0.8000   -3.8340 o         1 MOL     -0.747894
     15 H4         -5.1960   -3.6150   -4.5900 hn        1 MOL      0.329724
     16 H5         -6.3420   -1.0680   -3.8670 h1        1 MOL     -0.030785
     17 H6         -7.7150   -3.6640   -4.2080 hc        1 MOL      0.038042
     18 H7         -7.2670   -2.5830   -5.6070 hc        1 MOL      0.038042
     19 N2         -7.1340   -1.0910   -1.4700 n         1 MOL     -0.229187
     20 C7         -7.4180   -1.0690   -0.0340 c3        1 MOL      0.154653
     21 C8         -6.1610   -0.7170    0.8260 c         1 MOL      0.445091
     22 O5         -5.6850    0.3760    0.8790 o         1 MOL     -0.561929
     23 C9         -8.5980   -0.1630    0.1860 c3        1 MOL     -0.345109
     24 H8         -7.1020   -0.2070   -1.9550 hn        1 MOL      0.227182
     25 H9         -7.7650   -2.0540    0.2630 h1        1 MOL      0.073790
     26 H10        -9.5370   -0.5730   -0.1920 hc        1 MOL      0.088432
     27 H11        -8.6600   -0.0380    1.2700 hc        1 MOL      0.088432
     28 H12        -8.3990    0.8270   -0.2350 hc        1 MOL      0.088432
     29 N3         -5.6920   -1.6580    1.6370 n         1 MOL     -0.401478
     30 C10        -4.3940   -1.6690    2.4710 c3        1 MOL      0.194877
     31 C11        -4.3320   -0.5980    3.5410 c         1 MOL      0.419000
     32 O6         -3.2230   -0.2950    3.9450 o         1 MOL     -0.570253
     33 C12        -4.3220   -2.9790    3.1840 c3        1 MOL     -0.603982
     34 C13        -5.7370   -3.2820    3.7950 c         1 MOL      0.845555
     35 O7         -6.4030   -4.1600    3.2310 o         1 MOL     -0.744530
     36 O8         -6.1600   -2.7720    4.8040 o         1 MOL     -0.744530
     37 H13        -6.0360   -2.5730    1.3950 hn        1 MOL      0.224493
     38 H14        -3.5460   -1.5630    1.8040 h1        1 MOL      0.094762
     39 H15        -3.5790   -2.9510    3.9880 hc        1 MOL      0.134413
     40 H16        -4.0400   -3.7810    2.5030 hc        1 MOL      0.134413
     41 N4         -5.4520   -0.0110    3.9440 n         1 MOL     -0.046853
     42 C14        -5.6560    1.1080    4.9320 c3        1 MOL     -0.234137
     43 C15        -4.8360    2.3790    4.6830 c         1 MOL      0.585609
     44 O9         -4.8380    3.2110    5.5820 o         1 MOL     -0.574053
     45 H17        -6.3620   -0.3560    3.6640 hn        1 MOL      0.213437
     46 H18        -5.5480    0.8110    5.9730 h1        1 MOL      0.107356
     47 H19        -6.6660    1.4680    4.7520 h1        1 MOL      0.107356
     48 N5         -4.0490    2.4980    3.5870 n         1 MOL     -0.449218
     49 C16        -3.0990    3.5530    3.2810 c3        1 MOL      0.195536
     50 C17        -3.3850    4.0780    1.8110 c         1 MOL      0.363688
     51 O10        -3.6640    3.3040    0.8830 o         1 MOL     -0.421289
     52 C18        -1.6400    2.9530    3.5190 c3        1 MOL     -0.065941
     53 C19        -1.2690    2.5920    4.9470 c         1 MOL      0.511093
     54 N6         -1.8400    1.6440    5.5500 n         1 MOL     -0.611954
     55 O11        -0.4100    3.3530    5.5360 o         1 MOL     -0.622224
     56 H20        -4.0640    1.7140    2.9490 hn        1 MOL      0.214891
     57 H21        -3.2880    4.4560    3.8660 h1        1 MOL      0.022578
     58 H22        -0.9020    3.6770    3.1450 hc        1 MOL      0.042225
     59 H23        -1.5200    2.0290    2.9580 hc        1 MOL      0.042225
     60 H24        -2.3840    0.9700    5.0230 hn        1 MOL      0.332859
     61 H25        -1.7400    1.5950    6.5550 hn        1 MOL      0.332859
     62 N7         -3.1830    5.3960    1.6840 n         1 MOL     -0.361725
     63 C20        -3.1540    6.2540    0.4770 c3        1 MOL     -0.025969
     64 C21        -1.7030    6.6460    0.0980 c         1 MOL      0.599713
     65 O12        -0.8200    6.4400    0.9210 o         1 MOL     -0.526413
     66 H26        -2.8710    5.8530    2.5280 hn        1 MOL      0.258320
     67 H27        -3.7330    7.1600    0.6630 h1        1 MOL      0.063411
     68 H28        -3.5940    5.6360   -0.3110 h1        1 MOL      0.063411
     69 N8         -1.4720    6.9520   -1.1310 n         1 MOL     -0.480180
     70 C22        -0.1350    7.3720   -1.6290 c3        1 MOL     -0.206177
     71 C23         0.8720    6.3010   -1.8880 c         1 MOL      0.565155
     72 O13         2.0500    6.6170   -1.8460 o         1 MOL     -0.567368
     73 C24        -0.2950    8.3630   -2.8220 c3        1 MOL      0.529948
     74 C25        -0.6470    7.8210   -4.2200 c3        1 MOL     -0.410128
     75 O14        -1.0850    9.4580   -2.5060 oh        1 MOL     -0.652150
     76 H29        -2.2670    7.2390   -1.6800 hn        1 MOL      0.237116
     77 H30         0.2880    7.9240   -0.7880 h1        1 MOL      0.153383
     78 H31         0.7330    8.7210   -2.8680 h1        1 MOL      0.003023
     79 H32        -2.0090    9.2830   -2.7210 ho        1 MOL      0.395303
     80 H33        -0.9440    8.6510   -4.8550 hc        1 MOL      0.098568
     81 H34         0.2500    7.3310   -4.5810 hc        1 MOL      0.098568
     82 H35        -1.4790    7.1160   -4.2750 hc        1 MOL      0.098568
     83 N9          0.5020    5.0400   -1.9610 n         1 MOL     -0.294413
     84 C26         1.3630    3.8170   -2.2480 c3        1 MOL     -0.009278
     85 C27         1.0390    2.5750   -1.4140 c         1 MOL      0.565593
     86 O15         0.0040    2.4470   -0.8110 o         1 MOL     -0.482700
     87 C28         1.5840    3.5710   -3.7670 c3        1 MOL      0.053554
     88 C29         0.2620    3.4190   -4.5570 c3        1 MOL      0.075645
     89 C30         2.4510    4.6150   -4.3920 c3        1 MOL     -0.415870
     90 C31        -0.6000    2.2070   -4.1980 c3        1 MOL      0.049155
     91 H36        -0.4670    4.7840   -1.9470 hn        1 MOL      0.244643
     92 H37         2.3440    4.0960   -1.8570 h1        1 MOL      0.090434
     93 H38         2.0530    2.6010   -3.9220 hc        1 MOL      0.054440
     94 H39         0.6390    3.2610   -5.5700 hc        1 MOL     -0.035289
     95 H40        -0.3810    4.2990   -4.5780 hc        1 MOL     -0.035289
     96 H41         1.9750    5.5980   -4.3710 hc        1 MOL      0.108395
     97 H42         3.3860    4.7130   -3.8390 hc        1 MOL      0.108395
     98 H43         2.5650    4.4030   -5.4540 hc        1 MOL      0.108395
     99 H44         0.0590    1.3450   -4.3460 hc        1 MOL     -0.001374
    100 H45        -1.0730    2.1830   -3.2180 hc        1 MOL     -0.001374
    101 H46        -1.2850    2.1640   -5.0400 hc        1 MOL     -0.001374
    102 N10         1.9130    1.5810   -1.4960 n         1 MOL     -0.825933
    103 C32         1.8790    0.2440   -0.7890 c3        1 MOL      0.712306
    104 C33         3.2050   -0.1030   -0.0630 c         1 MOL      0.318109
    105 O16         3.7500   -1.2410   -0.0740 o         1 MOL     -0.371599
    106 C34         1.3750   -0.9270   -1.6450 c3        1 MOL     -0.071575
    107 C35         1.0260   -2.2900   -0.9170 c         1 MOL      0.642432
    108 O17         0.9140   -3.3440   -1.5540 o         1 MOL     -0.743231
    109 O18         0.8570   -2.3090    0.3260 o         1 MOL     -0.743231
    110 H47         2.7070    1.7640   -2.0920 hn        1 MOL      0.317005
    111 H48         1.1250    0.3150   -0.0110 h1        1 MOL     -0.057358
    112 H49         2.2070   -1.0810   -2.3350 hc        1 MOL     -0.020979
    113 H50         0.4630   -0.5590   -2.1170 hc        1 MOL     -0.020979
    114 N11         3.6750    0.9310    0.7180 n         1 MOL     -0.516554
    115 C36         5.0150    0.9710    1.3170 c3        1 MOL      0.173315
    116 C37         6.0790    0.2700    0.4130 c         1 MOL      0.190872
    117 O19         6.2730    0.5940   -0.7990 o         1 MOL     -0.484386
    118 C38         5.3830    2.4420    1.5920 c3        1 MOL     -0.229225
    119 C39         6.8200    2.5670    2.1070 ca        1 MOL      0.045591
    120 C40         7.1250    2.3160    3.4810 ca        1 MOL     -0.137741
    121 C41         7.8290    2.7040    1.1970 ca        1 MOL     -0.137741
    122 C42         8.4900    2.2490    3.9260 ca        1 MOL     -0.127392
    123 C43         9.1420    2.7970    1.6680 ca        1 MOL     -0.127392
    124 C44         9.5230    2.5780    3.0130 ca        1 MOL     -0.118761
    125 H51         3.1440    1.7980    0.7690 hn        1 MOL      0.302744
    126 H52         4.8330    0.3440    2.1960 h1        1 MOL      0.067303
    127 H53         4.7970    2.8620    2.4040 hc        1 MOL      0.116137
    128 H54         5.2860    3.1040    0.7370 hc        1 MOL      0.116137
    129 H55         6.3040    2.1410    4.1650 ha        1 MOL      0.132096
    130 H56         7.5720    2.9310    0.1700 ha        1 MOL      0.132096
    131 H57         8.7230    2.1090    4.9740 ha        1 MOL      0.107704
    132 H58         9.8600    2.9920    0.8860 ha        1 MOL      0.107704
    133 H59        10.5590    2.4600    3.2930 ha        1 MOL      0.115848
    134 N12         6.8750   -0.6460    1.0100 n         1 MOL      0.132220
    135 C45         7.9880   -1.3120    0.3640 c3        1 MOL      0.125836
    136 C46         7.6190   -2.2380   -0.8500 c         1 MOL      0.117698
    137 O20         8.4240   -2.3110   -1.7990 o         1 MOL     -0.469851
    138 C47         8.6200   -2.1050    1.4690 c3        1 MOL     -0.148206
    139 C48         8.2560   -1.3920    2.7220 c3        1 MOL     -0.045390
    140 C49         6.8610   -1.0730    2.4080 c3        1 MOL      0.005260
    141 H60         8.5970   -0.4890   -0.0090 h1        1 MOL      0.053119
    142 H61         8.0830   -3.0390    1.6010 hc        1 MOL      0.056771
    143 H62         9.7150   -2.0640    1.4690 hc        1 MOL      0.056771
    144 H63         8.3370   -2.0390    3.6010 hc        1 MOL      0.031162
    145 H64         8.9000   -0.5120    2.7620 hc        1 MOL      0.031162
    146 H65         6.2850   -1.9960    2.4620 h1        1 MOL      0.010819
    147 H66         6.5520   -0.2860    3.0930 h1        1 MOL      0.010819
    148 N13         6.3980   -2.7130   -0.8910 n         1 MOL      0.303329
    149 C50         6.0930   -3.7440   -1.8710 c3        1 MOL     -0.766277
    150 C51         5.9220   -3.1930   -3.2850 c         1 MOL      0.629120
    151 O21         6.1590   -3.8210   -4.3170 o         1 MOL     -0.546045
    152 C52         4.8480   -4.5100   -1.4610 c3        1 MOL      0.188185
    153 C53         4.8710   -5.1370   -0.0050 c3        1 MOL     -0.001918
    154 C54         3.4820   -5.7820    0.3880 c         1 MOL      0.581681
    155 O22         3.3310   -7.0000    0.0890 o         1 MOL     -0.721079
    156 O23         2.5440   -5.0580    0.7890 o         1 MOL     -0.721079
    157 H67         5.6530   -2.3470   -0.3130 hn        1 MOL     -0.000024
    158 H68         6.9300   -4.4450   -1.8670 h1        1 MOL      0.260335
    159 H69         4.5960   -5.1650   -2.3030 hc        1 MOL      0.035747
    160 H70         3.9740   -3.8520   -1.5310 hc        1 MOL      0.035747
    161 H71         5.2290   -4.3250    0.6430 hc        1 MOL     -0.016074
    162 H72         5.6150   -5.9260    0.0260 hc        1 MOL     -0.016074
    163 N14         5.5670   -1.8780   -3.4130 n         1 MOL     -0.226151
    164 C55         5.2650   -1.2010   -4.7200 c3        1 MOL     -0.178822
    165 H73         4.9600   -1.9480   -5.4540 h1        1 MOL      0.081612
    166 H74         4.4590   -0.4810   -4.5790 h1        1 MOL      0.081612
    167 H75         6.1560   -0.6850   -5.0780 h1        1 MOL      0.081612
    168 H76         5.4270   -1.3490   -2.5620 hn        1 MOL      0.216516
    169 Ca1        -0.1100   -4.8020    0.5620 Ca        1 MOL      1.805177
    170 O24         0.0890   -6.5070   -1.5560 oh        1 MOL     -0.855507
    171 H77        -0.3800   -6.1180   -2.2980 ho        1 MOL      0.424369
    172 H78         0.6830   -7.1370   -1.9510 ho        1 MOL      0.424369
    173 O25         0.7690   -7.0290    1.6790 oh        1 MOL     -0.855507
    174 H79         0.3730   -7.8800    1.5040 ho        1 MOL      0.424369
    175 H80         1.7080   -7.1570    1.5250 ho        1 MOL      0.424369
    176 O26        -2.1610   -6.5600    0.6520 oh        1 MOL     -0.855507
    177 H81        -2.2460   -6.5230    1.6050 ho        1 MOL      0.424369
    178 H82        -2.6050   -7.3660    0.3980 ho        1 MOL      0.424369
    179 O27        -2.4200   -3.6280    0.2180 oh        1 MOL     -0.855507
    180 H83        -3.2120   -4.0600   -0.1110 ho        1 MOL      0.424369
    181 H84        -2.4380   -2.7630   -0.1910 ho        1 MOL      0.424369
    182 O28         0.1680   -4.2190    3.0860 oh        1 MOL     -0.855507
    183 H85         0.4960   -3.3860    3.4430 ho        1 MOL      0.424369
    184 H86         0.2190   -4.8330    3.8120 ho        1 MOL      0.424369
@<TRIPOS>BOND
     1    1    2 1   
     2    1    4 1   
     3    1    5 1   
     4    1    6 1   
     5    2    3 2   
     6    2    7 1   
     7    7    8 1   
     8    7   15 1   
     9    8    9 1   
    10    8   11 1   
    11    8   16 1   
    12    9   10 2   
    13    9   19 1   
    14   11   12 1   
    15   11   17 1   
    16   11   18 1   
    17   12   13 1   
    18   12   14 1   
    19   19   20 1   
    20   19   24 1   
    21   20   21 1   
    22   20   23 1   
    23   20   25 1   
    24   21   22 2   
    25   21   29 1   
    26   23   26 1   
    27   23   27 1   
    28   23   28 1   
    29   29   30 1   
    30   29   37 1   
    31   30   31 1   
    32   30   33 1   
    33   30   38 1   
    34   31   32 2   
    35   31   41 1   
    36   33   34 1   
    37   33   39 1   
    38   33   40 1   
    39   34   35 1   
    40   34   36 1   
    41   41   42 1   
    42   41   45 1   
    43   42   43 1   
    44   42   46 1   
    45   42   47 1   
    46   43   44 2   
    47   43   48 1   
    48   48   49 1   
    49   48   56 1   
    50   49   50 1   
    51   49   52 1   
    52   49   57 1   
    53   50   51 2   
    54   50   62 1   
    55   52   53 1   
    56   52   58 1   
    57   52   59 1   
    58   53   54 1   
    59   53   55 2   
    60   54   60 1   
    61   54   61 1   
    62   62   63 1   
    63   62   66 1   
    64   63   64 1   
    65   63   67 1   
    66   63   68 1   
    67   64   65 2   
    68   64   69 1   
    69   69   70 1   
    70   69   76 1   
    71   70   71 1   
    72   70   73 1   
    73   70   77 1   
    74   71   72 2   
    75   71   83 1   
    76   73   74 1   
    77   73   75 1   
    78   73   78 1   
    79   74   80 1   
    80   74   81 1   
    81   74   82 1   
    82   75   79 1   
    83   83   84 1   
    84   83   91 1   
    85   84   85 1   
    86   84   87 1   
    87   84   92 1   
    88   85   86 2   
    89   85  102 1   
    90   87   88 1   
    91   87   89 1   
    92   87   93 1   
    93   88   90 1   
    94   88   94 1   
    95   88   95 1   
    96   89   96 1   
    97   89   97 1   
    98   89   98 1   
    99   90   99 1   
   100   90  100 1   
   101   90  101 1   
   102  102  103 1   
   103  102  110 1   
   104  103  104 1   
   105  103  106 1   
   106  103  111 1   
   107  104  105 2   
   108  104  114 1   
   109  106  107 1   
   110  106  112 1   
   111  106  113 1   
   112  107  108 1   
   113  107  109 1   
   114  114  115 1   
   115  114  125 1   
   116  115  116 1   
   117  115  118 1   
   118  115  126 1   
   119  116  117 2   
   120  116  134 1   
   121  118  119 1   
   122  118  127 1   
   123  118  128 1   
   124  119  120 ar  
   125  119  121 ar  
   126  120  122 ar  
   127  120  129 1   
   128  121  123 ar  
   129  121  130 1   
   130  122  124 ar  
   131  122  131 1   
   132  123  124 ar  
   133  123  132 1   
   134  124  133 1   
   135  134  135 1   
   136  134  140 1   
   137  135  136 1   
   138  135  138 1   
   139  135  141 1   
   140  136  137 2   
   141  136  148 1   
   142  138  139 1   
   143  138  142 1   
   144  138  143 1   
   145  139  140 1   
   146  139  144 1   
   147  139  145 1   
   148  140  146 1   
   149  140  147 1   
   150  148  149 1   
   151  148  157 1   
   152  149  150 1   
   153  149  152 1   
   154  149  158 1   
   155  150  151 2   
   156  150  163 1   
   157  152  153 1   
   158  152  159 1   
   159  152  160 1   
   160  153  154 1   
   161  153  161 1   
   162  153  162 1   
   163  154  155 1   
   164  154  156 1   
   165  163  164 1   
   166  163  168 1   
   167  164  165 1   
   168  164  166 1   
   169  164  167 1   
   170  170  171 1   
   171  170  172 1   
   172  173  174 1   
   173  173  175 1   
   174  176  177 1   
   175  176  178 1   
   176  179  180 1   
   177  179  181 1   
   178  182  183 1   
   179  182  184 1   
@<TRIPOS>SUBSTRUCTURE
     1 MOL         1 TEMP              0 ****  ****    0 ROOT
