@<TRIPOS>MOLECULE
MOL
  189   185     1     0     0
SMALL
resp


@<TRIPOS>ATOM
      1 C1          9.1670    2.0790    0.9860 c3        1 MOL     -0.546872
      2 C2          8.1480    1.1310    0.4180 c         1 MOL      0.657698
      3 O1          7.1000    0.8680    1.0150 o         1 MOL     -0.625529
      4 H1          8.8290    3.1050    0.8410 hc        1 MOL      0.146453
      5 H2          9.2910    1.8860    2.0520 hc        1 MOL      0.146453
      6 H3         10.1210    1.9360    0.4780 hc        1 MOL      0.146453
      7 N1          8.3510    0.7340   -0.8980 n         1 MOL     -0.367092
      8 C3          7.3160    0.0670   -1.6760 c3        1 MOL     -0.389202
      9 C4          7.0820   -1.4120   -1.2730 c         1 MOL      0.635750
     10 O2          7.1440   -2.3580   -2.0990 o         1 MOL     -0.449820
     11 C5          7.6370    0.2230   -3.2290 c3        1 MOL     -0.153828
     12 C6          9.0170   -0.3190   -3.6560 c         1 MOL      0.704806
     13 O3          9.1650   -0.3880   -4.8970 o         1 MOL     -0.647215
     14 O4          9.9140   -0.5920   -2.8070 o         1 MOL     -0.647215
     15 H4          9.2790    0.8200   -1.2910 hn        1 MOL      0.260914
     16 H5          6.3760    0.5900   -1.4860 h1        1 MOL      0.256551
     17 H6          7.5390    1.3010   -3.3640 hc        1 MOL      0.083793
     18 H7          6.8150   -0.2560   -3.7540 hc        1 MOL      0.083793
     19 N2          6.9620   -1.7340    0.0030 n         1 MOL     -0.525339
     20 C7          6.4890   -2.9970    0.5460 c3        1 MOL      0.191636
     21 C8          5.0280   -3.4120    0.2010 c         1 MOL      0.312694
     22 O5          4.7930   -4.3060   -0.5740 o         1 MOL     -0.491154
     23 C9          6.9300   -3.1910    1.9680 c3        1 MOL      0.095523
     24 C10         8.4440   -3.0000    2.0900 c3        1 MOL     -0.145806
     25 C11         8.9110   -3.4150    3.4550 c3        1 MOL      0.086838
     26 C12        10.4370   -3.2060    3.4440 c3        1 MOL     -0.047969
     27 N3         11.1520   -3.8740    4.4980 n4        1 MOL     -0.093723
     28 H8          6.9950   -0.9380    0.6310 hn        1 MOL      0.272755
     29 H9          7.0080   -3.7350   -0.0690 h1        1 MOL      0.027681
     30 H10         6.7030   -4.1520    2.4340 hc        1 MOL     -0.020433
     31 H11         6.3370   -2.5180    2.5840 hc        1 MOL     -0.020433
     32 H12         8.6060   -1.9400    1.9530 hc        1 MOL      0.064438
     33 H13         8.9480   -3.6350    1.3620 hc        1 MOL      0.064438
     34 H14         8.6710   -4.4620    3.6510 hc        1 MOL      0.001787
     35 H15         8.5140   -2.8360    4.2900 hc        1 MOL      0.001787
     36 H16        10.6070   -2.1350    3.4360 hx        1 MOL      0.080711
     37 H17        10.7330   -3.7180    2.5260 hx        1 MOL      0.080711
     38 H18        12.1570   -3.8030    4.4660 hn        1 MOL      0.217354
     39 H19        10.8960   -3.4490    5.3780 hn        1 MOL      0.217354
     40 H20        10.8650   -4.8420    4.5460 hn        1 MOL      0.217354
     41 N4          4.0290   -2.6130    0.4120 n         1 MOL     -0.296131
     42 C13         3.9660   -1.2250    0.9860 c3        1 MOL     -0.007962
     43 C14         3.8580   -0.0660   -0.0250 c         1 MOL      0.294423
     44 O6          3.8030   -0.2730   -1.2560 o         1 MOL     -0.416352
     45 C15         2.8140   -1.2150    1.9630 c3        1 MOL     -0.236055
     46 C16         1.4800   -1.5040    1.3250 c         1 MOL      0.695304
     47 O7          0.7330   -0.5560    1.0490 o         1 MOL     -0.651440
     48 O8          1.2530   -2.6930    1.0090 o         1 MOL     -0.651440
     49 H21         3.1630   -2.8930   -0.0400 hn        1 MOL      0.318259
     50 H22         4.8390   -1.1980    1.6350 h1        1 MOL      0.130708
     51 H23         2.7530   -0.2550    2.4750 hc        1 MOL      0.031309
     52 H24         2.8810   -2.0020    2.7100 hc        1 MOL      0.031309
     53 N5          3.9750    1.1740    0.3870 n         1 MOL     -0.309463
     54 C17         3.9720    2.4260   -0.3310 c3        1 MOL     -0.080809
     55 C18         2.5660    2.9630   -0.6460 c         1 MOL      0.538777
     56 O9          1.5680    2.2890   -0.4040 o         1 MOL     -0.432577
     57 H25         4.0480    1.2310    1.3910 hn        1 MOL      0.279776
     58 H26         4.6080    2.2820   -1.2120 h1        1 MOL      0.108145
     59 H27         4.4100    3.1430    0.3650 h1        1 MOL      0.108145
     60 N6          2.4960    4.1260   -1.2970 n         1 MOL     -0.598917
     61 C19         1.3520    4.7100   -1.9610 c3        1 MOL      0.330574
     62 C20         1.4860    6.2620   -2.1590 c         1 MOL      0.408689
     63 O10         2.5630    6.8220   -2.0720 o         1 MOL     -0.508863
     64 C21         1.1680    4.0650   -3.3640 c3        1 MOL      0.027264
     65 C22         1.0350    2.5310   -3.4090 c         1 MOL      0.620940
     66 O11         0.0520    1.9620   -2.9250 o         1 MOL     -0.668188
     67 O12         1.9250    1.9350   -4.0510 o         1 MOL     -0.668188
     68 H28         3.3160    4.6650   -1.5110 hn        1 MOL      0.296984
     69 H29         0.4430    4.4140   -1.4360 h1        1 MOL     -0.046818
     70 H30         2.0350    4.3680   -3.9560 hc        1 MOL     -0.015778
     71 H31         0.3250    4.5270   -3.8680 hc        1 MOL     -0.015778
     72 N7          0.4770    7.0060   -2.6280 n         1 MOL     -0.454641
     73 C23        -0.9770    6.7700   -2.5560 c3        1 MOL     -0.115922
     74 C24        -1.3610    6.3600   -1.1350 c         1 MOL      0.628280
     75 O13        -1.0450    6.8170   -0.0480 o         1 MOL     -0.544982
     76 H32         0.7590    7.9210   -2.9460 hn        1 MOL      0.331913
     77 H33        -1.3140    6.1100   -3.3430 h1        1 MOL      0.097814
     78 H34        -1.5630    7.6850   -2.6830 h1        1 MOL      0.097814
     79 N8         -2.2470    5.3920   -1.1360 n         1 MOL     -0.530967
     80 C25        -2.9840    4.7580   -0.0220 c3        1 MOL      0.038786
     81 C26        -2.0170    3.7300    0.5250 c         1 MOL      0.955168
     82 O14        -1.4120    2.9870   -0.2360 o         1 MOL     -0.726512
     83 C27        -4.2710    4.1530   -0.5460 c3        1 MOL      0.060748
     84 C28        -4.9900    3.1630    0.4090 c3        1 MOL     -0.182931
     85 O15        -4.0590    3.3360   -1.7370 oh        1 MOL     -0.539983
     86 H35        -2.4250    5.0030   -2.0460 hn        1 MOL      0.223124
     87 H36        -3.1660    5.5300    0.7160 h1        1 MOL      0.076156
     88 H37        -4.9500    4.9620   -0.8170 h1        1 MOL      0.078726
     89 H38        -4.0530    3.9880   -2.4490 ho        1 MOL      0.406849
     90 H39        -5.1850    3.7660    1.2990 hc        1 MOL      0.066808
     91 H40        -5.9170    2.7700    0.0040 hc        1 MOL      0.066808
     92 H41        -4.3410    2.3590    0.7410 hc        1 MOL      0.066808
     93 N9         -2.0360    3.6420    1.8470 n         1 MOL     -0.859931
     94 C29        -1.4470    2.5490    2.6670 c3        1 MOL      0.220948
     95 C30        -2.0450    1.1870    2.5130 c         1 MOL      0.718614
     96 O16        -1.9450    0.5600    1.4800 o         1 MOL     -0.593223
     97 C31         0.1150    2.6000    2.6770 c3        1 MOL      0.428938
     98 C32         0.6180    4.0960    2.8500 c3        1 MOL     -0.057619
     99 C33         0.6910    1.8020    3.8450 c3        1 MOL     -0.399340
    100 C34         0.2210    4.8500    4.1140 c3        1 MOL     -0.272670
    101 H42        -2.5470    4.3170    2.4110 hn        1 MOL      0.365395
    102 H43        -1.6960    2.8240    3.6990 h1        1 MOL     -0.037299
    103 H44         0.4640    2.2290    1.7170 hc        1 MOL     -0.186212
    104 H45         0.3580    4.7610    2.0230 hc        1 MOL      0.046654
    105 H46         1.6890    4.0210    2.6810 hc        1 MOL      0.046654
    106 H47         0.1610    1.9350    4.7870 hc        1 MOL      0.084465
    107 H48         0.6690    0.7850    3.4530 hc        1 MOL      0.084465
    108 H49         1.7110    2.1430    3.9970 hc        1 MOL      0.084465
    109 H50         0.6550    4.4540    5.0340 hc        1 MOL      0.069649
    110 H51         0.5600    5.8880    4.0440 hc        1 MOL      0.069649
    111 H52        -0.8460    4.9840    4.2440 hc        1 MOL      0.069649
    112 N10        -2.5620    0.5820    3.6340 n         1 MOL     -0.699237
    113 C35        -2.9030   -0.8040    3.8290 c3        1 MOL     -0.105165
    114 C36        -4.2740   -1.3430    3.3960 c         1 MOL      0.489335
    115 O17        -4.5050   -2.5340    3.5420 o         1 MOL     -0.559572
    116 C37        -2.5880   -1.2920    5.2580 c3        1 MOL      0.591881
    117 C38        -3.5980   -0.8250    6.2570 c3        1 MOL     -0.331445
    118 O18        -1.2480   -0.8240    5.5720 oh        1 MOL     -0.672858
    119 H53        -2.3150    0.9850    4.5300 hn        1 MOL      0.325769
    120 H54        -2.1270   -1.2900    3.2400 h1        1 MOL      0.086536
    121 H55        -2.5710   -2.3820    5.2790 h1        1 MOL     -0.031841
    122 H56        -0.5790   -1.3120    5.0880 ho        1 MOL      0.405770
    123 H57        -3.3190    0.2090    6.4770 hc        1 MOL      0.081938
    124 H58        -4.6080   -0.9480    5.8730 hc        1 MOL      0.081938
    125 H59        -3.3520   -1.3740    7.1670 hc        1 MOL      0.081938
    126 N11        -5.2360   -0.5480    2.9730 n         1 MOL     -0.045292
    127 C39        -6.5600   -1.0280    2.3460 c3        1 MOL     -0.329576
    128 C40        -6.3190   -1.2840    0.9020 c         1 MOL      0.652765
    129 O19        -5.6800   -0.4480    0.2510 o         1 MOL     -0.503066
    130 C41        -7.6570   -0.0230    2.5820 c3        1 MOL      0.264533
    131 C42        -8.1860   -0.0930    4.0440 c3        1 MOL     -0.382568
    132 O20        -7.1360    1.3470    2.4660 oh        1 MOL     -0.632277
    133 H60        -5.0450    0.4440    2.9350 hn        1 MOL      0.128355
    134 H61        -6.8330   -1.9740    2.8230 h1        1 MOL      0.131336
    135 H62        -8.4940   -0.0920    1.8900 h1        1 MOL      0.119599
    136 H63        -6.4920    1.5610    3.1390 ho        1 MOL      0.404327
    137 H64        -8.7700    0.7890    4.3040 hc        1 MOL      0.106634
    138 H65        -8.8480   -0.9640    4.0490 hc        1 MOL      0.106634
    139 H66        -7.3870   -0.1580    4.7720 hc        1 MOL      0.106634
    140 N12        -6.6400   -2.4840    0.4030 n         1 MOL     -0.480413
    141 C43        -6.5680   -2.9950   -0.9790 c3        1 MOL     -0.093151
    142 C44        -5.1340   -2.7360   -1.5910 c         1 MOL      0.637017
    143 O21        -4.8760   -1.7320   -2.2220 o         1 MOL     -0.507603
    144 C45        -7.7460   -2.5330   -1.8170 c3        1 MOL     -0.286289
    145 C46        -9.1490   -2.6250   -1.1840 c3        1 MOL      0.188251
    146 C47       -10.2080   -2.0460   -2.0830 c3        1 MOL      0.128739
    147 C48       -10.1700   -0.5530   -2.2130 c3        1 MOL      0.102782
    148 N13       -11.4390   -0.0780   -2.8270 n4        1 MOL     -0.195183
    149 H67        -7.0370   -3.1500    1.0520 hn        1 MOL      0.301690
    150 H68        -6.6640   -4.0730   -0.8080 h1        1 MOL      0.113584
    151 H69        -7.6500   -3.0010   -2.7920 hc        1 MOL      0.119637
    152 H70        -7.6460   -1.4720   -2.0610 hc        1 MOL      0.119637
    153 H71        -9.1590   -2.2050   -0.1810 hc        1 MOL     -0.035578
    154 H72        -9.4690   -3.6650   -1.0680 hc        1 MOL     -0.035578
    155 H73       -11.1180   -2.2430   -1.5260 hc        1 MOL     -0.036025
    156 H74       -10.2740   -2.4800   -3.0770 hc        1 MOL     -0.036025
    157 H75        -9.2620   -0.3140   -2.7580 hx        1 MOL      0.024400
    158 H76       -10.1270   -0.2600   -1.1670 hx        1 MOL      0.024400
    159 H77       -11.8470   -0.8400   -3.3380 hn        1 MOL      0.215445
    160 H78       -12.1200    0.0930   -2.1020 hn        1 MOL      0.215445
    161 H79       -11.3480    0.7030   -3.4620 hn        1 MOL      0.215445
    162 N14        -4.1660   -3.6380   -1.4930 n         1 MOL     -0.522722
    163 C49        -2.7970   -3.5340   -1.9880 c3        1 MOL      0.293575
    164 C50        -1.8020   -2.8310   -1.0510 c         1 MOL      0.455558
    165 O22        -1.3260   -1.7730   -1.3320 o         1 MOL     -0.606656
    166 C51        -2.3860   -4.9200   -2.5380 c3        1 MOL     -0.226290
    167 C52        -3.1570   -5.3410   -3.7890 c3        1 MOL     -0.162853
    168 C53        -2.7720   -6.7610   -4.2190 c         1 MOL      0.673851
    169 O23        -2.0520   -6.9040   -5.2810 o         1 MOL     -0.625323
    170 O24        -3.2780   -7.7280   -3.5900 o         1 MOL     -0.625323
    171 H80        -4.3030   -4.4410   -0.8940 hn        1 MOL      0.280223
    172 H81        -2.8930   -2.8320   -2.8150 h1        1 MOL      0.065210
    173 H82        -2.5420   -5.7870   -1.8940 hc        1 MOL      0.092788
    174 H83        -1.3100   -4.9070   -2.7360 hc        1 MOL      0.092788
    175 H84        -2.9410   -4.6510   -4.6090 hc        1 MOL      0.028225
    176 H85        -4.2280   -5.2550   -3.6420 hc        1 MOL      0.028225
    177 N15        -1.4820   -3.4250    0.1220 n         1 MOL     -0.348940
    178 C54        -1.8450   -4.7230    0.7460 c3        1 MOL      0.008704
    179 H86        -1.9960   -4.5820    1.8160 h1        1 MOL      0.034047
    180 H87        -2.7640   -5.0990    0.2970 h1        1 MOL      0.034047
    181 H88        -1.0420   -5.4420    0.5850 h1        1 MOL      0.034047
    182 H89        -0.8330   -2.8410    0.6260 hn        1 MOL      0.300194
    183 Ca1        -0.4390    0.6030   -0.8950 Ca        1 MOL      1.747148
    184 O25         1.4320   -1.0330   -1.9540 oh        1 MOL     -0.959540
    185 H90         2.3740   -0.8900   -1.8540 ho        1 MOL      0.452963
    186 H91         1.3710   -1.7860   -2.5330 ho        1 MOL      0.452963
    187 O26        -3.0440    0.8300   -1.7560 oh        1 MOL     -0.959540
    188 H92        -3.7690    0.2250   -1.6680 ho        1 MOL      0.452963
    189 H93        -3.3980    1.6670   -1.4300 ho        1 MOL      0.452963
@<TRIPOS>BOND
     1    1    2 1   
     2    1    4 1   
     3    1    5 1   
     4    1    6 1   
     5    2    3 2   
     6    2    7 1   
     7    7    8 1   
     8    7   15 1   
     9    8    9 1   
    10    8   11 1   
    11    8   16 1   
    12    9   10 2   
    13    9   19 1   
    14   11   12 1   
    15   11   17 1   
    16   11   18 1   
    17   12   13 1   
    18   12   14 1   
    19   19   20 1   
    20   19   28 1   
    21   20   21 1   
    22   20   23 1   
    23   20   29 1   
    24   21   22 2   
    25   21   41 1   
    26   23   24 1   
    27   23   30 1   
    28   23   31 1   
    29   24   25 1   
    30   24   32 1   
    31   24   33 1   
    32   25   26 1   
    33   25   34 1   
    34   25   35 1   
    35   26   27 1   
    36   26   36 1   
    37   26   37 1   
    38   27   38 1   
    39   27   39 1   
    40   27   40 1   
    41   41   42 1   
    42   41   49 1   
    43   42   43 1   
    44   42   45 1   
    45   42   50 1   
    46   43   44 2   
    47   43   53 1   
    48   45   46 1   
    49   45   51 1   
    50   45   52 1   
    51   46   47 1   
    52   46   48 1   
    53   53   54 1   
    54   53   57 1   
    55   54   55 1   
    56   54   58 1   
    57   54   59 1   
    58   55   56 2   
    59   55   60 1   
    60   60   61 1   
    61   60   68 1   
    62   61   62 1   
    63   61   64 1   
    64   61   69 1   
    65   62   63 2   
    66   62   72 1   
    67   64   65 1   
    68   64   70 1   
    69   64   71 1   
    70   65   66 1   
    71   65   67 1   
    72   72   73 1   
    73   72   76 1   
    74   73   74 1   
    75   73   77 1   
    76   73   78 1   
    77   74   75 2   
    78   74   79 1   
    79   79   80 1   
    80   79   86 1   
    81   80   81 1   
    82   80   83 1   
    83   80   87 1   
    84   81   82 2   
    85   81   93 1   
    86   83   84 1   
    87   83   85 1   
    88   83   88 1   
    89   84   90 1   
    90   84   91 1   
    91   84   92 1   
    92   85   89 1   
    93   93   94 1   
    94   93  101 1   
    95   94   95 1   
    96   94   97 1   
    97   94  102 1   
    98   95   96 2   
    99   95  112 1   
   100   97   98 1   
   101   97   99 1   
   102   97  103 1   
   103   98  100 1   
   104   98  104 1   
   105   98  105 1   
   106   99  106 1   
   107   99  107 1   
   108   99  108 1   
   109  100  109 1   
   110  100  110 1   
   111  100  111 1   
   112  112  113 1   
   113  112  119 1   
   114  113  114 1   
   115  113  116 1   
   116  113  120 1   
   117  114  115 2   
   118  114  126 1   
   119  116  117 1   
   120  116  118 1   
   121  116  121 1   
   122  117  123 1   
   123  117  124 1   
   124  117  125 1   
   125  118  122 1   
   126  126  127 1   
   127  126  133 1   
   128  127  128 1   
   129  127  130 1   
   130  127  134 1   
   131  128  129 2   
   132  128  140 1   
   133  130  131 1   
   134  130  132 1   
   135  130  135 1   
   136  131  137 1   
   137  131  138 1   
   138  131  139 1   
   139  132  136 1   
   140  140  141 1   
   141  140  149 1   
   142  141  142 1   
   143  141  144 1   
   144  141  150 1   
   145  142  143 2   
   146  142  162 1   
   147  144  145 1   
   148  144  151 1   
   149  144  152 1   
   150  145  146 1   
   151  145  153 1   
   152  145  154 1   
   153  146  147 1   
   154  146  155 1   
   155  146  156 1   
   156  147  148 1   
   157  147  157 1   
   158  147  158 1   
   159  148  159 1   
   160  148  160 1   
   161  148  161 1   
   162  162  163 1   
   163  162  171 1   
   164  163  164 1   
   165  163  166 1   
   166  163  172 1   
   167  164  165 2   
   168  164  177 1   
   169  166  167 1   
   170  166  173 1   
   171  166  174 1   
   172  167  168 1   
   173  167  175 1   
   174  167  176 1   
   175  168  169 1   
   176  168  170 1   
   177  177  178 1   
   178  177  182 1   
   179  178  179 1   
   180  178  180 1   
   181  178  181 1   
   182  184  185 1   
   183  184  186 1   
   184  187  188 1   
   185  187  189 1   
@<TRIPOS>SUBSTRUCTURE
     1 MOL         1 TEMP              0 ****  ****    0 ROOT
