@<TRIPOS>MOLECULE
MOL
  175   173     1     0     0
SMALL
resp


@<TRIPOS>ATOM
      1 C1         -6.1980    7.9030    1.9890 c3        1 MOL     -0.425759
      2 C2         -6.8980    7.0580    0.9140 c         1 MOL      0.749568
      3 O1         -6.6740    7.3500   -0.2440 o         1 MOL     -0.607739
      4 H1         -6.0910    7.3140    2.9010 hc        1 MOL      0.096550
      5 H2         -5.2130    8.2030    1.6330 hc        1 MOL      0.096550
      6 H3         -6.7950    8.7900    2.2000 hc        1 MOL      0.096550
      7 N1         -7.6070    6.0550    1.2710 n         1 MOL     -0.614426
      8 C3         -8.4620    5.2760    0.3440 c3        1 MOL      0.237494
      9 C4         -7.6620    4.0830   -0.1930 c         1 MOL      0.473167
     10 O2         -8.0270    2.9120   -0.0100 o         1 MOL     -0.520893
     11 C5         -9.7770    4.8670    1.0650 c3        1 MOL     -0.279390
     12 C6        -10.6620    4.1930    0.0420 c         1 MOL      0.784070
     13 O3        -11.5680    3.5650    0.5520 o         1 MOL     -0.747328
     14 O4        -10.6610    4.4650   -1.1870 o         1 MOL     -0.747328
     15 H4         -7.5670    5.6830    2.2130 hn        1 MOL      0.326432
     16 H5         -8.6630    5.9210   -0.5110 h1        1 MOL      0.020221
     17 H6        -10.3490    5.6760    1.5240 hc        1 MOL      0.046628
     18 H7         -9.5180    4.2070    1.8960 hc        1 MOL      0.046628
     19 N2         -6.5560    4.4050   -0.8990 n         1 MOL     -0.516653
     20 C7         -5.7350    3.3990   -1.4760 c3        1 MOL      0.272232
     21 C8         -4.9760    2.6870   -0.2700 c         1 MOL      0.717766
     22 O5         -4.3760    3.3370    0.5600 o         1 MOL     -0.591864
     23 C9         -4.6930    4.0850   -2.4180 c3        1 MOL     -0.547301
     24 H8         -6.2300    5.3590   -0.8950 hn        1 MOL      0.297627
     25 H9         -6.2940    2.6310   -2.0190 h1        1 MOL      0.061358
     26 H10        -4.2640    5.0280   -2.0980 hc        1 MOL      0.144851
     27 H11        -3.7730    3.5040   -2.4850 hc        1 MOL      0.144851
     28 H12        -5.2000    4.3320   -3.3620 hc        1 MOL      0.144851
     29 N3         -4.9950    1.3390   -0.1090 n         1 MOL     -0.609898
     30 C10        -5.6800    0.2850   -0.9700 c3        1 MOL     -0.037209
     31 C11        -5.9450   -1.1360   -0.3720 c         1 MOL      0.704103
     32 O6         -5.3050   -1.5190    0.5660 o         1 MOL     -0.545208
     33 C12        -4.7450    0.0150   -2.2410 c3        1 MOL     -0.079679
     34 C13        -3.2750   -0.2440   -1.9220 c         1 MOL      0.712974
     35 O7         -2.6700   -1.3250   -2.1900 o         1 MOL     -0.769121
     36 O8         -2.5640    0.5380   -1.2770 o         1 MOL     -0.769121
     37 H13        -4.2780    1.0040    0.5200 hn        1 MOL      0.336665
     38 H14        -6.6130    0.6760   -1.3880 h1        1 MOL      0.061712
     39 H15        -4.7820    0.8970   -2.8800 hc        1 MOL      0.006835
     40 H16        -5.1320   -0.7910   -2.8660 hc        1 MOL      0.006835
     41 N4         -6.9300   -1.8090   -0.9310 n         1 MOL     -0.563291
     42 C14        -7.3310   -3.1940   -0.7220 c3        1 MOL      0.131313
     43 C15        -6.9470   -4.1240   -1.8770 c         1 MOL      0.572753
     44 O9         -7.8210   -4.3620   -2.6520 o         1 MOL     -0.558139
     45 H17        -7.3700   -1.4360   -1.7630 hn        1 MOL      0.334373
     46 H18        -8.3970   -3.4280   -0.7430 h1        1 MOL      0.028923
     47 H19        -6.9410   -3.5690    0.2250 h1        1 MOL      0.028923
     48 N5         -5.6960   -4.5800   -2.0610 n         1 MOL     -0.574241
     49 C16        -4.5060   -4.2280   -1.2830 c3        1 MOL      0.154653
     50 C17        -4.5240   -4.7340    0.1550 c         1 MOL      0.535507
     51 O10        -5.0400   -5.8480    0.4350 o         1 MOL     -0.582667
     52 C18        -3.3590   -4.7050   -2.1420 c3        1 MOL     -0.476175
     53 C19        -2.0030   -4.3580   -1.5550 c         1 MOL      0.637823
     54 N6         -0.9730   -4.8140   -2.2650 n         1 MOL     -0.716793
     55 O11        -1.7560   -3.6540   -0.6140 o         1 MOL     -0.523177
     56 H20        -5.5860   -5.2110   -2.8370 hn        1 MOL      0.321813
     57 H21        -4.4670   -3.1370   -1.2430 h1        1 MOL      0.093789
     58 H22        -3.5580   -4.3780   -3.1590 hc        1 MOL      0.158884
     59 H23        -3.3670   -5.7790   -2.0140 hc        1 MOL      0.158884
     60 H24        -1.0380   -5.5160   -3.0000 hn        1 MOL      0.339645
     61 H25        -0.0340   -4.5420   -1.9940 hn        1 MOL      0.339645
     62 N7         -3.8700   -4.0230    1.1100 n         1 MOL     -0.107544
     63 C20        -3.6520   -4.4060    2.5100 c3        1 MOL     -0.247727
     64 C21        -2.1740   -5.0020    2.8380 c         1 MOL      0.538697
     65 O12        -1.9740   -5.6050    3.9000 o         1 MOL     -0.585069
     66 H26        -3.5680   -3.1070    0.8130 hn        1 MOL      0.106064
     67 H27        -4.4190   -5.1160    2.8270 h1        1 MOL      0.104952
     68 H28        -3.7860   -3.4960    3.0870 h1        1 MOL      0.104952
     69 N8         -1.2470   -4.7310    1.9830 n         1 MOL     -0.096567
     70 C22         0.1590   -4.8740    2.3150 c3        1 MOL     -0.125263
     71 C23         0.9240   -3.5980    1.9710 c         1 MOL      0.234961
     72 O13         0.5240   -2.7950    1.0950 o         1 MOL     -0.468299
     73 C24         0.7930   -6.1080    1.5900 c3        1 MOL      0.454364
     74 C25         0.2760   -7.3640    2.1400 c3        1 MOL     -0.540373
     75 O14         0.5080   -6.0350    0.1310 oh        1 MOL     -0.651174
     76 H29        -1.4440   -4.2690    1.1000 hn        1 MOL      0.121363
     77 H30         0.2310   -5.1110    3.3760 h1        1 MOL      0.063413
     78 H31         1.8800   -6.0150    1.6500 h1        1 MOL     -0.024493
     79 H32         1.1660   -5.4590   -0.2640 ho        1 MOL      0.444317
     80 H33         1.0530   -8.0980    1.9180 hc        1 MOL      0.138546
     81 H34         0.1710   -7.2790    3.2190 hc        1 MOL      0.138546
     82 H35        -0.7160   -7.5260    1.7310 hc        1 MOL      0.138546
     83 N9          2.1430   -3.5690    2.4790 n         1 MOL      0.006352
     84 C26         3.1150   -2.5500    2.2080 c3        1 MOL     -0.044084
     85 C27         4.0130   -2.9300    1.0530 c         1 MOL      0.046156
     86 O15         4.7640   -3.9200    1.0550 o         1 MOL     -0.494008
     87 C28         3.8360   -2.1190    3.4790 c3        1 MOL      0.147189
     88 C29         4.8630   -0.9610    3.1380 c3        1 MOL      0.210215
     89 C30         2.8620   -1.8310    4.6660 c3        1 MOL     -0.216844
     90 C31         5.7590   -0.5250    4.3820 c3        1 MOL     -0.276235
     91 H36         2.3430   -4.2440    3.2090 hn        1 MOL      0.173023
     92 H37         2.5430   -1.7030    1.8300 h1        1 MOL      0.056089
     93 H38         4.3910   -3.0080    3.7900 hc        1 MOL     -0.007557
     94 H39         4.4010   -0.0730    2.7070 hc        1 MOL     -0.014773
     95 H40         5.6180   -1.3380    2.4510 hc        1 MOL     -0.014773
     96 H41         2.0760   -2.5720    4.8260 hc        1 MOL      0.043902
     97 H42         3.3600   -1.7950    5.6360 hc        1 MOL      0.043902
     98 H43         2.3830   -0.8740    4.4120 hc        1 MOL      0.043902
     99 H44         6.2050   -1.4140    4.8300 hc        1 MOL      0.050604
    100 H45         6.4940    0.1550    3.9560 hc        1 MOL      0.050604
    101 H46         5.1740    0.1690    4.9900 hc        1 MOL      0.050604
    102 N10         3.8220   -2.2420   -0.0810 n         1 MOL      0.074800
    103 C32         4.4400   -2.6150   -1.3940 c3        1 MOL      0.060653
    104 C33         5.5320   -1.6680   -1.8680 c         1 MOL      0.553892
    105 O16         6.0440   -1.8120   -2.9900 o         1 MOL     -0.540072
    106 C34         3.3030   -2.7670   -2.4090 c3        1 MOL     -0.205245
    107 C35         2.0440   -3.4900   -1.9950 c         1 MOL      0.890815
    108 O17         2.0970   -4.7330   -1.7230 o         1 MOL     -0.753309
    109 O18         0.9890   -2.8930   -1.9840 o         1 MOL     -0.753309
    110 H47         3.1260   -1.5210   -0.0620 hn        1 MOL      0.140918
    111 H48         4.8660   -3.6060   -1.2510 h1        1 MOL      0.074053
    112 H49         3.5360   -3.2150   -3.3740 hc        1 MOL      0.011335
    113 H50         2.9740   -1.7310   -2.4930 hc        1 MOL      0.011335
    114 N11         5.9920   -0.7410   -0.9480 n         1 MOL     -0.515278
    115 C36         6.9710    0.3620   -1.2810 c3        1 MOL      0.366142
    116 C37         6.5330    1.6730   -0.5930 c         1 MOL      0.321407
    117 O19         6.2630    1.6710    0.6070 o         1 MOL     -0.499828
    118 C38         8.3420   -0.1130   -0.8830 c3        1 MOL     -0.322734
    119 C39         9.4610    0.8480   -1.1710 ca        1 MOL      0.176893
    120 C40        10.0460    1.5550   -0.0630 ca        1 MOL     -0.211085
    121 C41         9.9570    1.0830   -2.4910 ca        1 MOL     -0.211085
    122 C42        11.0260    2.5160   -0.2670 ca        1 MOL     -0.055023
    123 C43        11.1480    1.8570   -2.6050 ca        1 MOL     -0.055023
    124 C44        11.6540    2.6010   -1.5350 ca        1 MOL     -0.183784
    125 H51         5.4260   -0.5030   -0.1480 hn        1 MOL      0.183168
    126 H52         6.9780    0.4830   -2.3620 h1        1 MOL     -0.022971
    127 H53         8.4230   -1.0930   -1.3630 hc        1 MOL      0.117734
    128 H54         8.3910   -0.2510    0.1940 hc        1 MOL      0.117734
    129 H55         9.6070    1.5230    0.9200 ha        1 MOL      0.136264
    130 H56         9.6160    0.4970   -3.3430 ha        1 MOL      0.136264
    131 H57        11.4880    3.1250    0.4900 ha        1 MOL      0.093536
    132 H58        11.6370    1.8540   -3.5640 ha        1 MOL      0.093536
    133 H59        12.3950    3.3690   -1.7180 ha        1 MOL      0.116199
    134 N12         6.5250    2.8170   -1.3040 n         1 MOL     -0.050888
    135 C45         6.5030    4.1040   -0.5850 c3        1 MOL      0.020406
    136 C46         5.1830    4.7040   -0.0410 c         1 MOL      0.526005
    137 O20         5.0360    5.9270    0.0780 o         1 MOL     -0.546364
    138 C47         7.2430    5.0700   -1.4990 c3        1 MOL     -0.071772
    139 C48         6.9840    4.5210   -2.8830 c3        1 MOL      0.042894
    140 C49         6.8600    2.9910   -2.6920 c3        1 MOL     -0.136469
    141 H60         7.0960    3.9830    0.3220 h1        1 MOL      0.044150
    142 H61         6.8550    6.0840   -1.4110 hc        1 MOL      0.031596
    143 H62         8.3070    5.0150   -1.2430 hc        1 MOL      0.031596
    144 H63         6.0560    4.9700   -3.2440 hc        1 MOL      0.016144
    145 H64         7.8130    4.7360   -3.5540 hc        1 MOL      0.016144
    146 H65         6.0760    2.6730   -3.3730 h1        1 MOL      0.070516
    147 H66         7.8340    2.5850   -2.9690 h1        1 MOL      0.070516
    148 N13         4.2250    3.8840    0.3620 n         1 MOL     -0.343008
    149 C50         2.9000    4.3210    0.8390 c3        1 MOL     -0.145537
    150 C51         2.8610    4.8010    2.3900 c         1 MOL      0.455489
    151 O21         1.8760    5.3850    2.8140 o         1 MOL     -0.491013
    152 C52         1.9160    3.2040    0.5610 c3        1 MOL     -0.051074
    153 C53         2.3760    1.8390    1.1170 c3        1 MOL     -0.059024
    154 C54         1.5780    0.6410    0.6130 c         1 MOL      0.591399
    155 O22         2.0650   -0.1280   -0.2380 o         1 MOL     -0.695343
    156 O23         0.3800    0.4600    0.9960 o         1 MOL     -0.695343
    157 H67         4.3390    2.9100    0.1410 hn        1 MOL      0.200839
    158 H68         2.5230    5.1750    0.2740 h1        1 MOL      0.151684
    159 H69         1.8730    3.1220   -0.5260 hc        1 MOL      0.074289
    160 H70         0.9190    3.4590    0.9310 hc        1 MOL      0.074289
    161 H71         2.2530    1.8040    2.2020 hc        1 MOL      0.029392
    162 H72         3.4110    1.6190    0.8670 hc        1 MOL      0.029392
    163 N14         4.0230    4.6780    3.0270 n         1 MOL     -0.235634
    164 C55         4.2510    5.1610    4.3900 c3        1 MOL     -0.069719
    165 H73         4.2320    4.3170    5.0810 h1        1 MOL      0.059390
    166 H74         5.2220    5.6530    4.4440 h1        1 MOL      0.059390
    167 H75         3.4680    5.8690    4.6610 h1        1 MOL      0.059390
    168 H76         4.7040    4.0570    2.6100 hn        1 MOL      0.222218
    169 Ca1        -0.5160   -1.2540   -0.7770 Ca        1 MOL      1.751774
    170 O24         0.3160   -0.2080   -3.3730 oh        1 MOL     -0.773142
    171 H77         0.4150    0.5820   -3.9010 ho        1 MOL      0.386028
    172 H78         0.4160   -0.9250   -4.0070 ho        1 MOL      0.386028
    173 O25        -2.5600   -1.2680    1.1830 oh        1 MOL     -0.773142
    174 H79        -3.5000   -1.3140    1.0660 ho        1 MOL      0.386028
    175 H80        -2.4310   -0.5910    1.8430 ho        1 MOL      0.386028
@<TRIPOS>BOND
     1    1    2 1   
     2    1    4 1   
     3    1    5 1   
     4    1    6 1   
     5    2    3 2   
     6    2    7 1   
     7    7    8 1   
     8    7   15 1   
     9    8    9 1   
    10    8   11 1   
    11    8   16 1   
    12    9   10 2   
    13    9   19 1   
    14   11   12 1   
    15   11   17 1   
    16   11   18 1   
    17   12   13 1   
    18   12   14 1   
    19   19   20 1   
    20   19   24 1   
    21   20   21 1   
    22   20   23 1   
    23   20   25 1   
    24   21   22 2   
    25   21   29 1   
    26   23   26 1   
    27   23   27 1   
    28   23   28 1   
    29   29   30 1   
    30   29   37 1   
    31   30   31 1   
    32   30   33 1   
    33   30   38 1   
    34   31   32 2   
    35   31   41 1   
    36   33   34 1   
    37   33   39 1   
    38   33   40 1   
    39   34   35 1   
    40   34   36 1   
    41   41   42 1   
    42   41   45 1   
    43   42   43 1   
    44   42   46 1   
    45   42   47 1   
    46   43   44 2   
    47   43   48 1   
    48   48   49 1   
    49   48   56 1   
    50   49   50 1   
    51   49   52 1   
    52   49   57 1   
    53   50   51 2   
    54   50   62 1   
    55   52   53 1   
    56   52   58 1   
    57   52   59 1   
    58   53   54 1   
    59   53   55 2   
    60   54   60 1   
    61   54   61 1   
    62   62   63 1   
    63   62   66 1   
    64   63   64 1   
    65   63   67 1   
    66   63   68 1   
    67   64   65 2   
    68   64   69 1   
    69   69   70 1   
    70   69   76 1   
    71   70   71 1   
    72   70   73 1   
    73   70   77 1   
    74   71   72 2   
    75   71   83 1   
    76   73   74 1   
    77   73   75 1   
    78   73   78 1   
    79   74   80 1   
    80   74   81 1   
    81   74   82 1   
    82   75   79 1   
    83   83   84 1   
    84   83   91 1   
    85   84   85 1   
    86   84   87 1   
    87   84   92 1   
    88   85   86 2   
    89   85  102 1   
    90   87   88 1   
    91   87   89 1   
    92   87   93 1   
    93   88   90 1   
    94   88   94 1   
    95   88   95 1   
    96   89   96 1   
    97   89   97 1   
    98   89   98 1   
    99   90   99 1   
   100   90  100 1   
   101   90  101 1   
   102  102  103 1   
   103  102  110 1   
   104  103  104 1   
   105  103  106 1   
   106  103  111 1   
   107  104  105 2   
   108  104  114 1   
   109  106  107 1   
   110  106  112 1   
   111  106  113 1   
   112  107  108 1   
   113  107  109 1   
   114  114  115 1   
   115  114  125 1   
   116  115  116 1   
   117  115  118 1   
   118  115  126 1   
   119  116  117 2   
   120  116  134 1   
   121  118  119 1   
   122  118  127 1   
   123  118  128 1   
   124  119  120 ar  
   125  119  121 ar  
   126  120  122 ar  
   127  120  129 1   
   128  121  123 ar  
   129  121  130 1   
   130  122  124 ar  
   131  122  131 1   
   132  123  124 ar  
   133  123  132 1   
   134  124  133 1   
   135  134  135 1   
   136  134  140 1   
   137  135  136 1   
   138  135  138 1   
   139  135  141 1   
   140  136  137 2   
   141  136  148 1   
   142  138  139 1   
   143  138  142 1   
   144  138  143 1   
   145  139  140 1   
   146  139  144 1   
   147  139  145 1   
   148  140  146 1   
   149  140  147 1   
   150  148  149 1   
   151  148  157 1   
   152  149  150 1   
   153  149  152 1   
   154  149  158 1   
   155  150  151 2   
   156  150  163 1   
   157  152  153 1   
   158  152  159 1   
   159  152  160 1   
   160  153  154 1   
   161  153  161 1   
   162  153  162 1   
   163  154  155 1   
   164  154  156 1   
   165  163  164 1   
   166  163  168 1   
   167  164  165 1   
   168  164  166 1   
   169  164  167 1   
   170  170  171 1   
   171  170  172 1   
   172  173  174 1   
   173  173  175 1   
@<TRIPOS>SUBSTRUCTURE
     1 MOL         1 TEMP              0 ****  ****    0 ROOT
