@<TRIPOS>MOLECULE
MOL
  197   188     1     0     0
SMALL
resp


@<TRIPOS>ATOM
      1 C1         -1.2770   -0.6830   -3.6800 c3        1 MOL     -0.365140
      2 C2         -2.4620   -0.5430   -2.6340 c         1 MOL      0.588020
      3 O1         -2.3520    0.2250   -1.7000 o         1 MOL     -0.534112
      4 H1         -0.4020   -0.1480   -3.3120 hc        1 MOL      0.102233
      5 H2         -1.0300   -1.7370   -3.8110 hc        1 MOL      0.102233
      6 H3         -1.5850   -0.2590   -4.6360 hc        1 MOL      0.102233
      7 N1         -3.5470   -1.2600   -2.8620 n         1 MOL     -0.346176
      8 C3         -4.8630   -1.1900   -2.1500 c3        1 MOL      0.040908
      9 C4         -5.1970   -2.3610   -1.2190 c         1 MOL      0.669531
     10 O2         -6.2670   -2.4740   -0.7090 o         1 MOL     -0.478535
     11 C5         -6.0300   -1.0650   -3.1630 c3        1 MOL     -0.111864
     12 C6         -6.2270   -2.2970   -4.1140 c         1 MOL      0.685501
     13 O3         -5.1970   -2.7850   -4.6820 o         1 MOL     -0.680498
     14 O4         -7.4070   -2.7290   -4.4190 o         1 MOL     -0.680498
     15 H4         -3.4280   -1.8320   -3.6830 hn        1 MOL      0.216518
     16 H5         -4.7320   -0.3400   -1.4880 h1        1 MOL     -0.024537
     17 H6         -5.8850   -0.1730   -3.7700 hc        1 MOL      0.017993
     18 H7         -6.9780   -0.9490   -2.6420 hc        1 MOL      0.017993
     19 N2         -4.2220   -3.3110   -1.1240 n         1 MOL     -0.562710
     20 C7         -4.3840   -4.5550   -0.3420 c3        1 MOL      0.315653
     21 C8         -4.6770   -4.4010    1.1850 c         1 MOL      0.357250
     22 O5         -5.1040   -5.3370    1.8530 o         1 MOL     -0.505356
     23 C9         -5.2560   -5.4470   -1.0690 c3        1 MOL     -0.051284
     24 C10        -4.7700   -5.8790   -2.4970 c3        1 MOL      0.239225
     25 C11        -5.7160   -6.8370   -3.2070 c3        1 MOL     -0.115793
     26 C12        -5.0560   -7.3830   -4.4330 c3        1 MOL     -0.005535
     27 N3         -5.8250   -8.4230   -5.1150 n4        1 MOL      0.014146
     28 H8         -3.3890   -3.1430   -1.6650 hn        1 MOL      0.243726
     29 H9         -3.4170   -5.0460   -0.2740 h1        1 MOL      0.035098
     30 H10        -6.1980   -4.9260   -1.2220 hc        1 MOL     -0.013191
     31 H11        -5.2390   -6.3420   -0.4390 hc        1 MOL     -0.013191
     32 H12        -3.8220   -6.3960   -2.3580 hc        1 MOL     -0.073806
     33 H13        -4.6150   -4.9630   -3.0600 hc        1 MOL     -0.073806
     34 H14        -6.5760   -6.2230   -3.4780 hc        1 MOL      0.052296
     35 H15        -5.8340   -7.7450   -2.6010 hc        1 MOL      0.052296
     36 H16        -4.0700   -7.8260   -4.2750 hx        1 MOL      0.073402
     37 H17        -5.0080   -6.5420   -5.1260 hx        1 MOL      0.073402
     38 H18        -5.6640   -9.4030   -4.9180 hn        1 MOL      0.191844
     39 H19        -6.8230   -8.3080   -4.9910 hn        1 MOL      0.191844
     40 H20        -5.6450   -8.3780   -6.1140 hn        1 MOL      0.191844
     41 N4         -4.3540   -3.2170    1.6970 n         1 MOL     -0.064966
     42 C13        -5.0040   -2.7170    2.8800 c3        1 MOL     -0.074471
     43 C14        -5.4140   -1.1830    2.6680 c         1 MOL      0.508874
     44 O6         -4.7380   -0.4020    1.9790 o         1 MOL     -0.456021
     45 C15        -4.0350   -3.0230    4.0090 c3        1 MOL     -0.333446
     46 C16        -2.6430   -2.5120    3.8530 c         1 MOL      0.521204
     47 O7         -1.7230   -3.2730    3.4590 o         1 MOL     -0.617219
     48 O8         -2.4660   -1.2890    4.0610 o         1 MOL     -0.617219
     49 H21        -4.0420   -2.5280    1.0320 hn        1 MOL      0.095215
     50 H22        -5.8980   -3.2910    3.1260 h1        1 MOL      0.113946
     51 H23        -3.8010   -4.0820    4.0340 hc        1 MOL      0.124717
     52 H24        -4.3890   -2.7280    4.9960 hc        1 MOL      0.124717
     53 N5         -6.6130   -0.7480    3.2890 n         1 MOL     -0.539211
     54 C17        -7.4350    0.2960    2.7500 c3        1 MOL     -0.028172
     55 C18        -8.0750    0.0070    1.3490 c         1 MOL      0.541945
     56 O9         -8.7830   -0.9730    1.1940 o         1 MOL     -0.529071
     57 H25        -7.1200   -1.3870    3.8750 hn        1 MOL      0.354722
     58 H26        -6.8210    1.1930    2.6810 h1        1 MOL      0.085474
     59 H27        -8.2160    0.4270    3.4970 h1        1 MOL      0.085474
     60 N6         -7.9410    0.7380    0.2280 n         1 MOL     -0.464691
     61 C19        -7.0910    1.9420    0.0280 c3        1 MOL      0.064391
     62 C20        -6.6950    2.2830   -1.4400 c         1 MOL      0.534242
     63 O10        -7.4890    2.3840   -2.3160 o         1 MOL     -0.517047
     64 C21        -7.9280    3.1380    0.6540 c3        1 MOL     -0.438799
     65 C22        -7.1770    4.5300    0.5860 c         1 MOL      0.601430
     66 N7         -7.3720    5.4510   -0.3190 n         1 MOL     -0.750514
     67 O11        -6.2310    4.6880    1.3260 o         1 MOL     -0.544819
     68 H28        -8.4390    0.4100   -0.5870 hn        1 MOL      0.344854
     69 H29        -6.1770    1.8370    0.6240 h1        1 MOL      0.104807
     70 H30        -8.3380    3.0230    1.6480 hc        1 MOL      0.138308
     71 H31        -8.7560    3.2590   -0.0440 hc        1 MOL      0.138308
     72 H32        -8.1480    5.3280   -0.9630 hn        1 MOL      0.372429
     73 H33        -6.9940    6.3560   -0.1190 hn        1 MOL      0.372429
     74 N8         -5.4420    2.6760   -1.7320 n         1 MOL     -0.436372
     75 C23        -4.3420    2.7570   -0.7530 c3        1 MOL      0.153175
     76 C24        -3.1150    3.4710   -1.3300 c         1 MOL      0.633231
     77 O12        -3.2770    4.2760   -2.1950 o         1 MOL     -0.550834
     78 H34        -5.3110    2.8660   -2.7130 hn        1 MOL      0.304961
     79 H35        -3.9280    1.7740   -0.5490 h1        1 MOL     -0.003139
     80 H36        -4.5700    3.2030    0.2190 h1        1 MOL     -0.003139
     81 N9         -1.8820    3.2000   -0.8490 n         1 MOL     -0.550250
     82 C25        -0.6230    3.9330   -1.3310 c3        1 MOL      0.130210
     83 C26         0.5940    2.9670   -1.2870 c         1 MOL      0.494187
     84 O13         0.4010    1.8100   -0.8310 o         1 MOL     -0.474248
     85 C27        -0.4430    5.2480   -0.5300 c3        1 MOL     -0.303719
     86 C28         0.5490    6.1230   -1.1830 ca        1 MOL      0.061327
     87 C29         1.8840    6.4250   -0.6490 ca        1 MOL     -0.122916
     88 C30         0.1530    6.7840   -2.3490 ca        1 MOL     -0.122916
     89 C31         2.7230    7.2960   -1.3570 ca        1 MOL     -0.261556
     90 C32         1.0220    7.5850   -3.0980 ca        1 MOL     -0.261556
     91 C33         2.3250    7.8300   -2.5980 ca        1 MOL      0.323145
     92 O14         3.0390    8.8360   -3.2190 oh        1 MOL     -0.481787
     93 H37        -1.8250    2.6050   -0.0420 hn        1 MOL      0.296339
     94 H38        -0.7800    4.3210   -2.3350 h1        1 MOL      0.075014
     95 H39        -0.0440    5.0180    0.4570 hc        1 MOL      0.119828
     96 H40        -1.4210    5.7020   -0.3810 hc        1 MOL      0.119828
     97 H41         2.1800    6.0500    0.3160 ha        1 MOL      0.132280
     98 H42        -0.8410    6.6170   -2.7560 ha        1 MOL      0.132280
     99 H43         3.6680    7.5420   -0.8960 ha        1 MOL      0.155398
    100 H44         0.7780    8.0340   -4.0470 ha        1 MOL      0.155398
    101 H45         2.4790    9.1660   -3.9280 ho        1 MOL      0.362445
    102 N10         1.7540    3.2970   -1.7150 n         1 MOL     -0.337016
    103 C34         2.9250    2.4830   -1.5500 c3        1 MOL     -0.026424
    104 C35         3.4320    2.2570   -0.1160 c         1 MOL      0.320671
    105 O15         3.1040    3.0750    0.7510 o         1 MOL     -0.510931
    106 C36         4.0830    2.9600   -2.3850 c3        1 MOL      0.233701
    107 C37         4.6870    4.2420   -1.6950 c3        1 MOL     -0.117278
    108 C38         5.1920    1.9770   -2.8160 c3        1 MOL     -0.219644
    109 C39         5.6420    5.0000   -2.6480 c3        1 MOL     -0.195925
    110 H46         1.9190    4.2210   -2.0840 hn        1 MOL      0.200715
    111 H47         2.6710    1.5010   -1.9640 h1        1 MOL      0.087703
    112 H48         3.5500    3.2910   -3.2760 hc        1 MOL      0.005330
    113 H49         5.2450    4.0010   -0.7860 hc        1 MOL      0.076578
    114 H50         3.8940    4.8980   -1.3530 hc        1 MOL      0.076578
    115 H51         5.8640    2.4040   -3.5620 hc        1 MOL      0.046896
    116 H52         5.7820    1.6410   -1.9650 hc        1 MOL      0.046896
    117 H53         4.7610    1.0400   -3.1970 hc        1 MOL      0.046896
    118 H54         6.0370    5.9220   -2.2150 hc        1 MOL      0.054949
    119 H55         6.4710    4.3640   -2.9590 hc        1 MOL      0.054949
    120 H56         5.1860    5.2600   -3.6100 hc        1 MOL      0.054949
    121 N11         4.2940    1.2840    0.1400 n         1 MOL     -0.250467
    122 C40         4.8820    1.0060    1.5300 c3        1 MOL     -0.116333
    123 C41         5.1060   -0.4770    1.7640 c         1 MOL      0.697136
    124 O16         5.2890   -1.1740    0.8230 o         1 MOL     -0.478306
    125 C42         6.2340    1.7110    1.6390 c3        1 MOL     -0.077381
    126 O17         7.3010    1.0950    0.8330 oh        1 MOL     -0.490352
    127 H57         4.4970    0.6050   -0.5900 hn        1 MOL      0.252072
    128 H58         4.1280    1.3330    2.2490 h1        1 MOL      0.115520
    129 H59         6.5330    1.7040    2.6890 h1        1 MOL      0.085655
    130 H60         6.0950    2.7100    1.2160 h1        1 MOL      0.085655
    131 H61         8.0690    1.6670    0.8700 ho        1 MOL      0.394765
    132 N12         5.2090   -0.9090    3.0360 n         1 MOL     -0.611916
    133 C43         5.6630   -2.2380    3.3610 c3        1 MOL      0.028807
    134 C44         7.1710   -2.5900    2.9160 c         1 MOL      0.412767
    135 O18         7.4750   -3.7520    2.6690 o         1 MOL     -0.381852
    136 C45         4.5290   -3.3090    3.0630 c3        1 MOL     -0.323517
    137 H62         5.3280   -0.1760    3.7260 hn        1 MOL      0.318372
    138 H63         5.7010   -2.0860    4.4430 h1        1 MOL      0.081270
    139 H64         3.5500   -2.9640    3.4040 hc        1 MOL      0.123885
    140 H65         4.3120   -3.4320    2.0070 hc        1 MOL      0.123885
    141 H66         4.8080   -4.2660    3.4830 hc        1 MOL      0.123885
    142 N13         8.0190   -1.5250    2.8710 n         1 MOL     -0.430080
    143 C46         9.3630   -1.4940    2.3190 c3        1 MOL      0.087031
    144 C47         9.4010   -2.1880    0.8850 c         1 MOL      0.438798
    145 O19        10.1570   -3.1690    0.7970 o         1 MOL     -0.470348
    146 C48        10.3770   -2.0750    3.3040 c3        1 MOL     -0.215991
    147 H67         7.6160   -0.6590    3.2000 hn        1 MOL      0.271018
    148 H68         9.6200   -0.4540    2.0960 h1        1 MOL      0.028477
    149 H69        10.1990   -3.1090    3.6050 hc        1 MOL      0.072578
    150 H70        11.4070   -2.1230    2.9410 hc        1 MOL      0.072578
    151 H71        10.4750   -1.5320    4.2370 hc        1 MOL      0.072578
    152 N14         8.6530   -1.7090   -0.1360 n         1 MOL     -0.360648
    153 C49         8.5450   -2.4430   -1.4310 c3        1 MOL     -0.062957
    154 C50         9.4070   -1.9380   -2.5510 c         1 MOL      0.417601
    155 O20         9.7900   -2.7190   -3.4050 o         1 MOL     -0.485904
    156 C51         7.0030   -2.4190   -1.7290 c3        1 MOL      0.258986
    157 C52         6.4940   -3.4020   -2.8350 c3        1 MOL     -0.392195
    158 C53         6.7080   -4.9420   -2.7220 c         1 MOL      0.783831
    159 O21         7.3910   -5.4170   -1.7940 o         1 MOL     -0.646112
    160 O22         6.0850   -5.7340   -3.4330 o         1 MOL     -0.646112
    161 H72         8.0460   -0.9820    0.2090 hn        1 MOL      0.180324
    162 H73         8.6990   -3.5120   -1.2750 h1        1 MOL      0.158813
    163 H74         6.6940   -1.3990   -1.9710 hc        1 MOL      0.007398
    164 H75         6.4420   -2.6190   -0.8240 hc        1 MOL      0.007398
    165 H76         6.9540   -3.0250   -3.7500 hc        1 MOL      0.040431
    166 H77         5.4200   -3.2710   -2.8770 hc        1 MOL      0.040431
    167 N15         9.7800   -0.6600   -2.5360 n         1 MOL     -0.210599
    168 C54        10.6370   -0.0570   -3.5200 c3        1 MOL     -0.182665
    169 H78        11.6280    0.1000   -3.0920 h1        1 MOL      0.088000
    170 H79        10.7170   -0.7150   -4.3860 h1        1 MOL      0.088000
    171 H80        10.2200    0.9010   -3.8290 h1        1 MOL      0.088000
    172 H81         9.4600   -0.1460   -1.7280 hn        1 MOL      0.158943
    173 Ca1        -1.0100    0.7860    3.6740 Ca        1 MOL      1.641128
    174 O23        -0.9080    3.3880    4.4030 oh        1 MOL     -0.794143
    175 H82        -1.4260    4.1580    4.1610 ho        1 MOL      0.385855
    176 H83        -0.6690    3.5350    5.3150 ho        1 MOL      0.385855
    177 O24         1.3860    0.8930    4.7350 oh        1 MOL     -0.794143
    178 H84         1.5570   -0.0230    4.9570 ho        1 MOL      0.385855
    179 H85         2.2090    1.3360    4.9150 ho        1 MOL      0.385855
    180 O25        -1.4120   -0.2570    1.1270 oh        1 MOL     -0.794143
    181 H86        -1.9680   -1.0010    1.3390 ho        1 MOL      0.385855
    182 H87        -1.5950   -0.0740    0.2050 ho        1 MOL      0.385855
    183 O26         0.3490    2.0630    1.9090 oh        1 MOL     -0.794143
    184 H88         0.3900    2.1620    0.9550 ho        1 MOL      0.385855
    185 H89         0.9510    2.7340    2.2450 ho        1 MOL      0.385855
    186 O27        -3.1740    1.7760    2.3810 oh        1 MOL     -0.794143
    187 H90        -3.8200    1.1120    2.1660 ho        1 MOL      0.385855
    188 H91        -3.6510    2.4150    2.9090 ho        1 MOL      0.385855
    189 O28         0.4550   -1.6050    3.0410 oh        1 MOL     -0.794143
    190 H92         1.0890   -1.8590    3.7200 ho        1 MOL      0.385855
    191 H93        -0.3080   -2.1600    3.2070 ho        1 MOL      0.385855
    192 O29        -3.3690    1.3200    5.2000 oh        1 MOL     -0.794143
    193 H94        -3.7600    2.0580    5.6700 ho        1 MOL      0.385855
    194 H95        -3.7210    0.5410    5.6220 ho        1 MOL      0.385855
    195 O30        -1.2170   -0.2890    6.1310 oh        1 MOL     -0.794143
    196 H96        -1.2500   -0.3680    7.0800 ho        1 MOL      0.385855
    197 H97        -1.9710   -0.7860    5.8260 ho        1 MOL      0.385855
@<TRIPOS>BOND
     1    1    2 1   
     2    1    4 1   
     3    1    5 1   
     4    1    6 1   
     5    2    3 2   
     6    2    7 1   
     7    7    8 1   
     8    7   15 1   
     9    8    9 1   
    10    8   11 1   
    11    8   16 1   
    12    9   10 2   
    13    9   19 1   
    14   11   12 1   
    15   11   17 1   
    16   11   18 1   
    17   12   13 1   
    18   12   14 1   
    19   19   20 1   
    20   19   28 1   
    21   20   21 1   
    22   20   23 1   
    23   20   29 1   
    24   21   22 2   
    25   21   41 1   
    26   23   24 1   
    27   23   30 1   
    28   23   31 1   
    29   24   25 1   
    30   24   32 1   
    31   24   33 1   
    32   25   26 1   
    33   25   34 1   
    34   25   35 1   
    35   26   27 1   
    36   26   36 1   
    37   26   37 1   
    38   27   38 1   
    39   27   39 1   
    40   27   40 1   
    41   41   42 1   
    42   41   49 1   
    43   42   43 1   
    44   42   45 1   
    45   42   50 1   
    46   43   44 2   
    47   43   53 1   
    48   45   46 1   
    49   45   51 1   
    50   45   52 1   
    51   46   47 1   
    52   46   48 1   
    53   53   54 1   
    54   53   57 1   
    55   54   55 1   
    56   54   58 1   
    57   54   59 1   
    58   55   56 2   
    59   55   60 1   
    60   60   61 1   
    61   60   68 1   
    62   61   62 1   
    63   61   64 1   
    64   61   69 1   
    65   62   63 2   
    66   62   74 1   
    67   64   65 1   
    68   64   70 1   
    69   64   71 1   
    70   65   66 1   
    71   65   67 2   
    72   66   72 1   
    73   66   73 1   
    74   74   75 1   
    75   74   78 1   
    76   75   76 1   
    77   75   79 1   
    78   75   80 1   
    79   76   77 2   
    80   76   81 1   
    81   81   82 1   
    82   81   93 1   
    83   82   83 1   
    84   82   85 1   
    85   82   94 1   
    86   83   84 2   
    87   83  102 1   
    88   85   86 1   
    89   85   95 1   
    90   85   96 1   
    91   86   87 ar  
    92   86   88 ar  
    93   87   89 ar  
    94   87   97 1   
    95   88   90 ar  
    96   88   98 1   
    97   89   91 ar  
    98   89   99 1   
    99   90   91 ar  
   100   90  100 1   
   101   91   92 1   
   102   92  101 1   
   103  102  103 1   
   104  102  110 1   
   105  103  104 1   
   106  103  106 1   
   107  103  111 1   
   108  104  105 2   
   109  104  121 1   
   110  106  107 1   
   111  106  108 1   
   112  106  112 1   
   113  107  109 1   
   114  107  113 1   
   115  107  114 1   
   116  108  115 1   
   117  108  116 1   
   118  108  117 1   
   119  109  118 1   
   120  109  119 1   
   121  109  120 1   
   122  121  122 1   
   123  121  127 1   
   124  122  123 1   
   125  122  125 1   
   126  122  128 1   
   127  123  124 2   
   128  123  132 1   
   129  125  126 1   
   130  125  129 1   
   131  125  130 1   
   132  126  131 1   
   133  132  133 1   
   134  132  137 1   
   135  133  134 1   
   136  133  136 1   
   137  133  138 1   
   138  134  135 2   
   139  134  142 1   
   140  136  139 1   
   141  136  140 1   
   142  136  141 1   
   143  142  143 1   
   144  142  147 1   
   145  143  144 1   
   146  143  146 1   
   147  143  148 1   
   148  144  145 2   
   149  144  152 1   
   150  146  149 1   
   151  146  150 1   
   152  146  151 1   
   153  152  153 1   
   154  152  161 1   
   155  153  154 1   
   156  153  156 1   
   157  153  162 1   
   158  154  155 2   
   159  154  167 1   
   160  156  157 1   
   161  156  163 1   
   162  156  164 1   
   163  157  158 1   
   164  157  165 1   
   165  157  166 1   
   166  158  159 1   
   167  158  160 1   
   168  167  168 1   
   169  167  172 1   
   170  168  169 1   
   171  168  170 1   
   172  168  171 1   
   173  174  175 1   
   174  174  176 1   
   175  177  178 1   
   176  177  179 1   
   177  180  181 1   
   178  180  182 1   
   179  183  184 1   
   180  183  185 1   
   181  186  187 1   
   182  186  188 1   
   183  189  190 1   
   184  189  191 1   
   185  192  193 1   
   186  192  194 1   
   187  195  196 1   
   188  195  197 1   
@<TRIPOS>SUBSTRUCTURE
     1 MOL         1 TEMP              0 ****  ****    0 ROOT
