@<TRIPOS>MOLECULE
MOL
  191   184     1     0     0
SMALL
resp


@<TRIPOS>ATOM
      1 C1          3.3730    2.4480    2.9070 c3        1 MOL     -0.475408
      2 C2          4.1820    2.3760    1.6580 c         1 MOL      0.645562
      3 O1          3.9520    1.5300    0.7540 o         1 MOL     -0.360733
      4 H1          3.4880    1.5200    3.4680 hc        1 MOL      0.123962
      5 H2          3.7150    3.2850    3.5150 hc        1 MOL      0.123962
      6 H3          2.3230    2.5890    2.6520 hc        1 MOL      0.123962
      7 N1          5.2690    3.1790    1.5870 n         1 MOL     -0.547400
      8 C3          6.3540    3.1150    0.5890 c3        1 MOL      0.033086
      9 C4          6.9610    1.6760    0.4650 c         1 MOL      0.533612
     10 O2          7.1550    1.2100   -0.6740 o         1 MOL     -0.505602
     11 C5          5.9590    3.8360   -0.7590 c3        1 MOL     -0.355770
     12 C6          5.2960    5.2370   -0.7770 c         1 MOL      0.738677
     13 O3          5.0350    5.8940    0.2690 o         1 MOL     -0.681079
     14 O4          5.0280    5.7040   -1.8880 o         1 MOL     -0.681079
     15 H4          5.2880    3.9980    2.1830 hn        1 MOL      0.299029
     16 H5          7.1250    3.8090    0.9160 h1        1 MOL      0.087551
     17 H6          5.2880    3.1830   -1.3210 hc        1 MOL      0.099878
     18 H7          6.8590    3.8660   -1.3610 hc        1 MOL      0.099878
     19 N2          7.2470    1.0850    1.5950 n         1 MOL     -0.416150
     20 C7          7.9180   -0.2380    1.9090 c3        1 MOL     -0.019249
     21 C8          7.0010   -1.4900    1.6220 c         1 MOL      0.479347
     22 O5          7.4220   -2.6270    1.8310 o         1 MOL     -0.546563
     23 C9          8.4460   -0.1900    3.3090 c3        1 MOL      0.158665
     24 C10         9.4510   -1.3330    3.5900 c3        1 MOL     -0.083407
     25 C11        10.4060   -1.0470    4.7870 c3        1 MOL      0.030142
     26 C12         9.6800   -1.0860    6.0710 c3        1 MOL      0.071414
     27 N3         10.4950   -0.7100    7.2100 n4        1 MOL     -0.128246
     28 H8          7.3960    1.7630    2.3300 hn        1 MOL      0.215206
     29 H9          8.7860   -0.2530    1.2580 h1        1 MOL      0.109964
     30 H10         7.6030   -0.2020    3.9990 hc        1 MOL     -0.025308
     31 H11         8.9470    0.7760    3.4120 hc        1 MOL     -0.025308
     32 H12        10.1090   -1.4740    2.7340 hc        1 MOL      0.050147
     33 H13         8.8470   -2.2340    3.6830 hc        1 MOL      0.050147
     34 H14        10.8750   -0.0710    4.6750 hc        1 MOL      0.009460
     35 H15        11.1950   -1.8000    4.8360 hc        1 MOL      0.009460
     36 H16         9.1890   -2.0530    6.1690 hx        1 MOL      0.040446
     37 H17         8.9240   -0.2990    5.9790 hx        1 MOL      0.040446
     38 H18         9.9980   -0.9390    8.0690 hn        1 MOL      0.188760
     39 H19        11.3520   -1.2360    7.2530 hn        1 MOL      0.188760
     40 H20        10.7240    0.2660    7.3390 hn        1 MOL      0.188760
     41 N4          5.7420   -1.2600    1.2750 n         1 MOL     -0.130220
     42 C13         4.7410   -2.2880    0.9560 c3        1 MOL     -0.306107
     43 C14         5.0760   -3.1680   -0.2580 c         1 MOL      0.626233
     44 O6          5.7390   -2.6390   -1.1320 o         1 MOL     -0.440455
     45 C15         3.3610   -1.6230    0.9230 c3        1 MOL      0.112375
     46 C16         2.1710   -2.5160    0.6480 c         1 MOL      0.502550
     47 O7          2.1010   -2.9790   -0.5490 o         1 MOL     -0.692074
     48 O8          1.2980   -2.8110    1.5370 o         1 MOL     -0.692074
     49 H21         5.4120   -0.3140    1.1500 hn        1 MOL      0.051125
     50 H22         4.6670   -2.9050    1.8570 h1        1 MOL      0.082994
     51 H23         3.3600   -0.8970    0.1070 hc        1 MOL      0.083726
     52 H24         3.1260   -1.0430    1.8150 hc        1 MOL      0.083726
     53 N5          4.6190   -4.3880   -0.3140 n         1 MOL     -0.356218
     54 C17         4.7240   -5.2110   -1.4830 c3        1 MOL     -0.036561
     55 C18         4.2670   -4.6720   -2.8470 c         1 MOL      0.404075
     56 O9          4.9520   -4.9140   -3.8750 o         1 MOL     -0.524511
     57 H25         4.2420   -4.8690    0.4940 hn        1 MOL      0.253164
     58 H26         4.0390   -6.0420   -1.3190 h1        1 MOL      0.051245
     59 H27         5.7610   -5.5150   -1.6570 h1        1 MOL      0.051245
     60 N6          3.2130   -3.9020   -2.8490 n         1 MOL     -0.012387
     61 C19         2.4700   -3.2840   -3.9610 c3        1 MOL     -0.120413
     62 C20         2.9110   -1.8250   -4.0870 c         1 MOL      0.556436
     63 O10         2.5880   -1.1150   -5.0490 o         1 MOL     -0.544719
     64 C21         0.9760   -3.2920   -3.6770 c3        1 MOL     -0.320615
     65 C22         0.4700   -4.7130   -3.6050 c         1 MOL      0.720611
     66 N7          0.5020   -5.4130   -4.6820 n         1 MOL     -0.769588
     67 O11        -0.0000   -5.2250   -2.5930 o         1 MOL     -0.621876
     68 H28         2.7270   -3.7490   -1.9750 hn        1 MOL      0.035892
     69 H29         2.8630   -3.8340   -4.8160 h1        1 MOL      0.093558
     70 H30         0.3690   -2.7300   -4.3920 hc        1 MOL      0.111228
     71 H31         0.8060   -2.8370   -2.7030 hc        1 MOL      0.111228
     72 H32         0.8710   -5.0220   -5.5320 hn        1 MOL      0.381823
     73 H33         0.0480   -6.3080   -4.6910 hn        1 MOL      0.381823
     74 N8          3.6460   -1.3290   -3.0940 n         1 MOL     -0.181155
     75 C23         4.2130    0.0230   -2.9070 c3        1 MOL     -0.133834
     76 C24         3.2150    1.1310   -2.8960 c         1 MOL      0.537341
     77 O12         2.9770    1.7130   -3.9410 o         1 MOL     -0.531221
     78 H34         3.8130   -1.9890   -2.3400 hn        1 MOL      0.071644
     79 H35         5.0680    0.1570   -3.5810 h1        1 MOL      0.119502
     80 H36         4.8220    0.1570   -2.0120 h1        1 MOL      0.119502
     81 N9          2.6020    1.4810   -1.7600 n         1 MOL     -0.108512
     82 C25         1.6400    2.4780   -1.5320 c3        1 MOL     -0.328339
     83 C26         0.6910    2.1740   -0.3430 c         1 MOL      0.599317
     84 O13         0.9720    1.2910    0.4260 o         1 MOL     -0.542976
     85 C27         2.3810    3.8140   -1.2930 c3        1 MOL     -0.067648
     86 C28         1.5420    5.1220   -1.2510 ca        1 MOL      0.052119
     87 C29         0.7390    5.5210   -2.3240 ca        1 MOL     -0.114115
     88 C30         1.8250    6.0550   -0.1560 ca        1 MOL     -0.114115
     89 C31         0.1840    6.8160   -2.2870 ca        1 MOL     -0.231813
     90 C32         1.2320    7.3330   -0.1790 ca        1 MOL     -0.231813
     91 C33         0.4440    7.7610   -1.2720 ca        1 MOL      0.363679
     92 O14         0.0470    9.0060   -1.3710 oh        1 MOL     -0.529531
     93 H37         2.9620    1.0090   -0.9400 hn        1 MOL     -0.031046
     94 H38         0.9980    2.5900   -2.4150 h1        1 MOL      0.116447
     95 H39         3.1300    3.9230   -2.0810 hc        1 MOL      0.138559
     96 H40         2.9260    3.7040   -0.3560 hc        1 MOL      0.138559
     97 H41         0.5960    4.8550   -3.1550 ha        1 MOL      0.109874
     98 H42         2.5500    5.7750    0.5930 ha        1 MOL      0.109874
     99 H43        -0.4690    7.1150   -3.0930 ha        1 MOL      0.108959
    100 H44         1.4140    7.9880    0.6660 ha        1 MOL      0.108959
    101 H45         0.2970    9.5770   -0.6380 ho        1 MOL      0.401324
    102 N10        -0.4140    2.8830   -0.1820 n         1 MOL     -0.539827
    103 C34        -1.4340    2.5990    0.8410 c3        1 MOL      0.051123
    104 C35        -2.5410    1.6840    0.2650 c         1 MOL      0.446907
    105 O15        -3.4000    1.2020    0.9760 o         1 MOL     -0.544046
    106 C36        -1.8720    3.8910    1.5690 c3        1 MOL      0.125357
    107 C37        -2.7870    3.5960    2.8610 c3        1 MOL     -0.033828
    108 C38        -2.5910    4.8010    0.5870 c3        1 MOL     -0.346429
    109 C39        -3.1200    4.7360    3.8100 c3        1 MOL      0.066870
    110 H46        -0.6420    3.5890   -0.8680 hn        1 MOL      0.243639
    111 H47        -0.9820    2.0010    1.6340 h1        1 MOL      0.096029
    112 H48        -0.9590    4.3500    1.9570 hc        1 MOL      0.020557
    113 H49        -2.2130    2.8740    3.4460 hc        1 MOL      0.034121
    114 H50        -3.8030    3.2850    2.6120 hc        1 MOL      0.034121
    115 H51        -2.9580    5.6620    1.1310 hc        1 MOL      0.080910
    116 H52        -1.8810    5.1550   -0.1670 hc        1 MOL      0.080910
    117 H53        -3.5070    4.3640    0.2020 hc        1 MOL      0.080910
    118 H54        -3.1830    4.3690    4.8350 hc        1 MOL     -0.018585
    119 H55        -2.3340    5.4930    3.8830 hc        1 MOL     -0.018585
    120 H56        -4.0480    5.2750    3.6380 hc        1 MOL     -0.018585
    121 N11        -2.5800    1.5360   -1.0720 n         1 MOL     -0.356146
    122 C40        -3.4770    0.5970   -1.7120 c3        1 MOL      0.017524
    123 C41        -4.8740    1.1550   -2.0420 c         1 MOL      0.394551
    124 O16        -5.6300    0.3750   -2.6370 o         1 MOL     -0.487676
    125 C42        -2.7010    0.2160   -2.9370 c3        1 MOL      0.108995
    126 O17        -1.4140   -0.3990   -2.6920 oh        1 MOL     -0.602989
    127 H57        -1.9550    2.0740   -1.6510 hn        1 MOL      0.286892
    128 H58        -3.6010   -0.2750   -1.0670 h1        1 MOL      0.140041
    129 H59        -2.6700    1.1250   -3.5400 h1        1 MOL      0.031165
    130 H60        -3.2890   -0.5530   -3.4260 h1        1 MOL      0.031165
    131 H61        -0.8380   -0.1340   -3.4170 ho        1 MOL      0.448114
    132 N12        -5.1540    2.4400   -1.7090 n         1 MOL     -0.225629
    133 C43        -6.4010    3.1310   -1.9680 c3        1 MOL      0.239998
    134 C44        -7.7510    2.3150   -1.8310 c         1 MOL      0.513804
    135 O18        -8.6670    2.6370   -2.5480 o         1 MOL     -0.504730
    136 C45        -6.2270    3.8010   -3.3570 c3        1 MOL     -0.075171
    137 H62        -4.4370    2.9890   -1.2540 hn        1 MOL      0.142823
    138 H63        -6.4370    3.9500   -1.2470 h1        1 MOL      0.003124
    139 H64        -5.2820    4.3300   -3.4770 hc        1 MOL      0.011531
    140 H65        -6.3200    2.9340   -4.0210 hc        1 MOL      0.011531
    141 H66        -7.0950    4.4390   -3.5330 hc        1 MOL      0.011531
    142 N13        -7.7850    1.4010   -0.8470 n         1 MOL     -0.526940
    143 C46        -8.9120    0.5540   -0.5360 c3        1 MOL      0.281202
    144 C47        -8.6760   -0.0320    0.9050 c         1 MOL      0.491571
    145 O19        -7.5650   -0.0010    1.4750 o         1 MOL     -0.438482
    146 C48        -9.0020   -0.6790   -1.4840 c3        1 MOL     -0.400191
    147 H67        -7.0160    1.3570   -0.1960 hn        1 MOL      0.202039
    148 H68        -9.8010    1.1810   -0.5520 h1        1 MOL      0.011311
    149 H69        -9.1630   -0.3250   -2.5020 hc        1 MOL      0.123625
    150 H70        -8.0360   -1.1750   -1.4650 hc        1 MOL      0.123625
    151 H71        -9.8920   -1.2840   -1.2890 hc        1 MOL      0.123625
    152 N14        -9.7760   -0.5430    1.4890 n         1 MOL     -0.492915
    153 C49        -9.8500   -0.9760    2.8980 c3        1 MOL      0.155474
    154 C50        -9.3840    0.1060    3.8880 c         1 MOL      0.283645
    155 O20        -8.9300   -0.0940    5.0030 o         1 MOL     -0.459518
    156 C51        -9.2930   -2.3930    3.2040 c3        1 MOL      0.055977
    157 C52        -9.8910   -3.3410    2.1990 c3        1 MOL      0.047032
    158 C53        -9.3500   -4.7880    2.2660 c         1 MOL      0.572866
    159 O21        -9.1380   -5.3740    1.1750 o         1 MOL     -0.615309
    160 O22        -8.9530   -5.3650    3.3320 o         1 MOL     -0.615309
    161 H72       -10.6250   -0.5480    0.9440 hn        1 MOL      0.275415
    162 H73       -10.9290   -1.1100    3.0170 h1        1 MOL      0.042388
    163 H74        -9.6080   -2.7250    4.2000 hc        1 MOL      0.003588
    164 H75        -8.2130   -2.2940    3.0760 hc        1 MOL      0.003588
    165 H76        -9.7780   -3.0650    1.1500 hc        1 MOL     -0.046201
    166 H77       -10.9560   -3.3530    2.4120 hc        1 MOL     -0.046201
    167 N15        -9.4600    1.4040    3.4700 n         1 MOL     -0.184286
    168 C54        -9.0760    2.5690    4.2130 c3        1 MOL     -0.078540
    169 H78        -8.8330    2.2820    5.2360 h1        1 MOL      0.062690
    170 H79        -8.2030    3.0270    3.7480 h1        1 MOL      0.062690
    171 H80        -9.8990    3.2830    4.2230 h1        1 MOL      0.062690
    172 H81        -9.9530    1.5730    2.5990 hn        1 MOL      0.152637
    173 Ca1        -0.3820   -4.2210   -0.0630 Ca        1 MOL      1.702378
    174 O23        -2.3120   -3.7990   -1.9220 oh        1 MOL     -0.767843
    175 H82        -2.2910   -3.8080   -2.8830 ho        1 MOL      0.393593
    176 H83        -3.2320   -3.6230   -1.7190 ho        1 MOL      0.393593
    177 O24         0.0100   -5.6900    2.2830 oh        1 MOL     -0.767843
    178 H84         0.1870   -5.4390    3.1870 ho        1 MOL      0.393593
    179 H85         0.3050   -6.6000    2.2250 ho        1 MOL      0.393593
    180 O25        -1.0330   -1.4690   -0.1240 oh        1 MOL     -0.767843
    181 H86        -0.8500   -0.6160    0.2720 ho        1 MOL      0.393593
    182 H87        -1.1120   -1.2880   -1.0610 ho        1 MOL      0.393593
    183 O26        -2.3400   -3.4180    1.5890 oh        1 MOL     -0.767843
    184 H88        -2.3150   -2.4530    1.5730 ho        1 MOL      0.393593
    185 H89        -2.6110   -3.6270    2.4840 ho        1 MOL      0.393593
    186 O27         1.7450   -6.0890   -0.1270 oh        1 MOL     -0.767843
    187 H90         1.9040   -6.8550   -0.6760 ho        1 MOL      0.393593
    188 H91         2.3750   -6.1740    0.5870 ho        1 MOL      0.393593
    189 O28        -2.0520   -6.3950   -0.2600 oh        1 MOL     -0.767843
    190 H92        -2.6470   -6.5210    0.4870 ho        1 MOL      0.393593
    191 H93        -1.5680   -7.2200   -0.3200 ho        1 MOL      0.393593
@<TRIPOS>BOND
     1    1    2 1   
     2    1    4 1   
     3    1    5 1   
     4    1    6 1   
     5    2    3 2   
     6    2    7 1   
     7    7    8 1   
     8    7   15 1   
     9    8    9 1   
    10    8   11 1   
    11    8   16 1   
    12    9   10 2   
    13    9   19 1   
    14   11   12 1   
    15   11   17 1   
    16   11   18 1   
    17   12   13 1   
    18   12   14 1   
    19   19   20 1   
    20   19   28 1   
    21   20   21 1   
    22   20   23 1   
    23   20   29 1   
    24   21   22 2   
    25   21   41 1   
    26   23   24 1   
    27   23   30 1   
    28   23   31 1   
    29   24   25 1   
    30   24   32 1   
    31   24   33 1   
    32   25   26 1   
    33   25   34 1   
    34   25   35 1   
    35   26   27 1   
    36   26   36 1   
    37   26   37 1   
    38   27   38 1   
    39   27   39 1   
    40   27   40 1   
    41   41   42 1   
    42   41   49 1   
    43   42   43 1   
    44   42   45 1   
    45   42   50 1   
    46   43   44 2   
    47   43   53 1   
    48   45   46 1   
    49   45   51 1   
    50   45   52 1   
    51   46   47 1   
    52   46   48 1   
    53   53   54 1   
    54   53   57 1   
    55   54   55 1   
    56   54   58 1   
    57   54   59 1   
    58   55   56 2   
    59   55   60 1   
    60   60   61 1   
    61   60   68 1   
    62   61   62 1   
    63   61   64 1   
    64   61   69 1   
    65   62   63 2   
    66   62   74 1   
    67   64   65 1   
    68   64   70 1   
    69   64   71 1   
    70   65   66 1   
    71   65   67 2   
    72   66   72 1   
    73   66   73 1   
    74   74   75 1   
    75   74   78 1   
    76   75   76 1   
    77   75   79 1   
    78   75   80 1   
    79   76   77 2   
    80   76   81 1   
    81   81   82 1   
    82   81   93 1   
    83   82   83 1   
    84   82   85 1   
    85   82   94 1   
    86   83   84 2   
    87   83  102 1   
    88   85   86 1   
    89   85   95 1   
    90   85   96 1   
    91   86   87 ar  
    92   86   88 ar  
    93   87   89 ar  
    94   87   97 1   
    95   88   90 ar  
    96   88   98 1   
    97   89   91 ar  
    98   89   99 1   
    99   90   91 ar  
   100   90  100 1   
   101   91   92 1   
   102   92  101 1   
   103  102  103 1   
   104  102  110 1   
   105  103  104 1   
   106  103  106 1   
   107  103  111 1   
   108  104  105 2   
   109  104  121 1   
   110  106  107 1   
   111  106  108 1   
   112  106  112 1   
   113  107  109 1   
   114  107  113 1   
   115  107  114 1   
   116  108  115 1   
   117  108  116 1   
   118  108  117 1   
   119  109  118 1   
   120  109  119 1   
   121  109  120 1   
   122  121  122 1   
   123  121  127 1   
   124  122  123 1   
   125  122  125 1   
   126  122  128 1   
   127  123  124 2   
   128  123  132 1   
   129  125  126 1   
   130  125  129 1   
   131  125  130 1   
   132  126  131 1   
   133  132  133 1   
   134  132  137 1   
   135  133  134 1   
   136  133  136 1   
   137  133  138 1   
   138  134  135 2   
   139  134  142 1   
   140  136  139 1   
   141  136  140 1   
   142  136  141 1   
   143  142  143 1   
   144  142  147 1   
   145  143  144 1   
   146  143  146 1   
   147  143  148 1   
   148  144  145 2   
   149  144  152 1   
   150  146  149 1   
   151  146  150 1   
   152  146  151 1   
   153  152  153 1   
   154  152  161 1   
   155  153  154 1   
   156  153  156 1   
   157  153  162 1   
   158  154  155 2   
   159  154  167 1   
   160  156  157 1   
   161  156  163 1   
   162  156  164 1   
   163  157  158 1   
   164  157  165 1   
   165  157  166 1   
   166  158  159 1   
   167  158  160 1   
   168  167  168 1   
   169  167  172 1   
   170  168  169 1   
   171  168  170 1   
   172  168  171 1   
   173  174  175 1   
   174  174  176 1   
   175  177  178 1   
   176  177  179 1   
   177  180  181 1   
   178  180  182 1   
   179  183  184 1   
   180  183  185 1   
   181  186  187 1   
   182  186  188 1   
   183  189  190 1   
   184  189  191 1   
@<TRIPOS>SUBSTRUCTURE
     1 MOL         1 TEMP              0 ****  ****    0 ROOT
