@<TRIPOS>MOLECULE
MOL
  181   177     1     0     0
SMALL
resp


@<TRIPOS>ATOM
      1 C1          4.3000    6.5390   -3.9640 c3        1 MOL     -0.339797
      2 C2          4.7800    6.8500   -2.4830 c         1 MOL      0.555517
      3 O1          4.6450    7.9450   -1.9840 o         1 MOL     -0.555553
      4 H1          4.2170    5.4610   -4.0990 hc        1 MOL      0.084664
      5 H2          3.3300    7.0030   -4.1370 hc        1 MOL      0.084664
      6 H3          5.0260    6.9380   -4.6720 hc        1 MOL      0.084664
      7 N1          5.6150    6.0220   -1.8430 n         1 MOL     -0.373340
      8 C3          5.8720    6.0720   -0.3910 c3        1 MOL      0.379829
      9 C4          5.7280    4.6890    0.2500 c         1 MOL      0.280162
     10 O2          5.7060    3.7100   -0.4740 o         1 MOL     -0.519382
     11 C5          7.1800    6.7930   -0.0600 c3        1 MOL     -0.289219
     12 C6          8.4110    6.3110   -0.9410 c         1 MOL      0.622518
     13 O3          8.9410    7.0120   -1.8420 o         1 MOL     -0.695785
     14 O4          8.7150    5.0900   -0.7710 o         1 MOL     -0.695785
     15 H4          5.8950    5.1510   -2.2730 hn        1 MOL      0.269157
     16 H5          5.0320    6.5650    0.0950 h1        1 MOL     -0.062403
     17 H6          7.3930    6.6330    0.9970 hc        1 MOL      0.027152
     18 H7          6.9480    7.8010   -0.3880 hc        1 MOL      0.027152
     19 N2          5.6180    4.7020    1.5160 n         1 MOL     -0.281009
     20 C7          5.5410    3.6030    2.4680 c3        1 MOL      0.225259
     21 C8          4.1130    3.1040    2.6910 c         1 MOL      0.522730
     22 O5          3.2190    3.9010    2.6370 o         1 MOL     -0.585454
     23 C9          6.2150    4.0310    3.7370 c3        1 MOL     -0.320235
     24 H8          5.6070    5.6070    1.9790 hn        1 MOL      0.231799
     25 H9          6.1400    2.8180    2.0100 h1        1 MOL      0.066071
     26 H10         6.0500    3.3410    4.5690 hc        1 MOL      0.085790
     27 H11         7.2880    4.1240    3.6250 hc        1 MOL      0.085790
     28 H12         5.8840    5.0210    4.0530 hc        1 MOL      0.085790
     29 N3          3.7440    1.9140    3.0480 n         1 MOL     -0.503234
     30 C10         4.4820    0.6870    3.1030 c3        1 MOL      0.166633
     31 C11         4.3110   -0.3220    1.8850 c         1 MOL      0.295913
     32 O6          3.2550   -0.4450    1.3120 o         1 MOL     -0.370851
     33 C12         4.1150   -0.0440    4.4460 c3        1 MOL     -0.212216
     34 C13         2.5590   -0.3260    4.6270 c         1 MOL      0.618170
     35 O7          1.9710   -0.9520    3.7770 o         1 MOL     -0.655740
     36 O8          2.0430    0.2230    5.6530 o         1 MOL     -0.655740
     37 H13         2.7440    1.7940    3.1360 hn        1 MOL      0.410149
     38 H14         5.5190    1.0390    3.0480 h1        1 MOL     -0.015615
     39 H15         4.5200    0.5340    5.2770 hc        1 MOL      0.026761
     40 H16         4.7230   -0.9430    4.3660 hc        1 MOL      0.026761
     41 N4          5.3250   -1.1520    1.6170 n         1 MOL     -0.383129
     42 C14         5.3290   -2.0820    0.4920 c3        1 MOL      0.009976
     43 C15         5.4870   -1.5190   -0.9760 c         1 MOL      0.484958
     44 O9          5.5050   -0.2860   -1.2440 o         1 MOL     -0.465852
     45 H17         6.1210   -1.1110    2.2340 hn        1 MOL      0.295537
     46 H18         4.3170   -2.4730    0.3910 h1        1 MOL      0.047659
     47 H19         6.0610   -2.8900    0.6390 h1        1 MOL      0.047659
     48 N5          5.6630   -2.3510   -2.0070 n         1 MOL     -0.571118
     49 C16         5.4760   -3.8690   -2.0190 c3        1 MOL      0.328699
     50 C17         3.9990   -4.1970   -2.4080 c         1 MOL      0.479716
     51 O10         3.2070   -3.2610   -2.7260 o         1 MOL     -0.476025
     52 C18         6.5030   -4.3640   -3.0130 c3        1 MOL     -0.408501
     53 C19         7.8950   -4.1160   -2.6460 c         1 MOL      0.750393
     54 N6          8.7910   -3.9530   -3.6080 n         1 MOL     -0.796888
     55 O11         8.2980   -4.1730   -1.4650 o         1 MOL     -0.543119
     56 H20         5.7030   -1.8400   -2.8740 hn        1 MOL      0.327135
     57 H21         5.6860   -4.3070   -1.0480 h1        1 MOL     -0.019950
     58 H22         6.1680   -3.9310   -3.9530 hc        1 MOL      0.087553
     59 H23         6.3470   -5.4300   -3.1560 hc        1 MOL      0.087553
     60 H24         8.4170   -3.8230   -4.5420 hn        1 MOL      0.369400
     61 H25         9.6970   -3.5710   -3.3910 hn        1 MOL      0.369400
     62 N7          3.6790   -5.4500   -2.6470 n         1 MOL     -0.383861
     63 C20         2.4570   -5.9260   -3.3280 c3        1 MOL     -0.221321
     64 C21         1.1960   -6.0840   -2.5260 c         1 MOL      0.458257
     65 O12         0.1440   -6.5320   -3.0540 o         1 MOL     -0.530083
     66 H26         4.4050   -6.1370   -2.4950 hn        1 MOL      0.277725
     67 H27         2.7550   -6.9040   -3.7240 h1        1 MOL      0.153328
     68 H28         2.2420   -5.3340   -4.2140 h1        1 MOL      0.153328
     69 N8          1.2160   -5.9300   -1.1920 n         1 MOL     -0.197720
     70 C22         0.0760   -5.9100   -0.3690 c3        1 MOL     -0.080815
     71 C23        -0.6390   -4.5340   -0.3480 c         1 MOL      0.417396
     72 O13        -0.1060   -3.4920   -0.0630 o         1 MOL     -0.431496
     73 C24         0.3970   -6.5830    0.9850 c3        1 MOL      0.302220
     74 C25         0.6110   -8.0700    1.0100 c3        1 MOL     -0.385276
     75 O14         1.5640   -6.0370    1.6580 oh        1 MOL     -0.626601
     76 H29         2.1190   -5.9520   -0.7310 hn        1 MOL      0.186013
     77 H30        -0.5990   -6.6280   -0.8370 h1        1 MOL      0.107391
     78 H31        -0.3200   -6.1930    1.7150 h1        1 MOL      0.042530
     79 H32         1.7840   -6.5690    2.4300 ho        1 MOL      0.418463
     80 H33         1.6280   -8.1880    0.6500 hc        1 MOL      0.105168
     81 H34         0.6700   -8.4460    2.0390 hc        1 MOL      0.105168
     82 H35        -0.1250   -8.7190    0.5200 hc        1 MOL      0.105168
     83 N9         -1.9790   -4.5400   -0.3040 n         1 MOL     -0.341778
     84 C26        -2.8240   -3.3320   -0.2640 c3        1 MOL      0.123332
     85 C27        -3.6430   -3.1750    1.0940 c         1 MOL      0.490780
     86 O15        -4.1540   -4.1660    1.6440 o         1 MOL     -0.581512
     87 C28        -3.9210   -3.3530   -1.3840 c3        1 MOL      0.250052
     88 C29        -3.3180   -2.4890   -2.5690 c3        1 MOL      0.014234
     89 C30        -4.3400   -4.7110   -1.7720 c3        1 MOL     -0.075738
     90 C31        -1.9940   -2.9080   -3.2410 c3        1 MOL     -0.033451
     91 H36        -2.3900   -5.4590   -0.2750 hn        1 MOL      0.210896
     92 H37        -2.1870   -2.4490   -0.3270 h1        1 MOL     -0.066625
     93 H38        -4.7960   -2.7890   -1.0520 hc        1 MOL     -0.064249
     94 H39        -3.1710   -1.5210   -2.0880 hc        1 MOL     -0.059767
     95 H40        -4.1180   -2.4210   -3.3010 hc        1 MOL     -0.059767
     96 H41        -3.5740   -5.1800   -2.3760 hc        1 MOL      0.004064
     97 H42        -4.6540   -5.3190   -0.9230 hc        1 MOL      0.004064
     98 H43        -5.2430   -4.6720   -2.3870 hc        1 MOL      0.004064
     99 H44        -1.1610   -2.5130   -2.6500 hc        1 MOL      0.018821
    100 H45        -1.9440   -3.9350   -3.5860 hc        1 MOL      0.018821
    101 H46        -1.9220   -2.2890   -4.1300 hc        1 MOL      0.018821
    102 N10        -3.7250   -1.9280    1.5050 n         1 MOL     -0.178001
    103 C32        -4.4630   -1.4120    2.6390 c3        1 MOL     -0.086595
    104 C33        -5.6890   -0.5560    2.2790 c         1 MOL      0.623295
    105 O16        -6.5920   -0.4980    3.0790 o         1 MOL     -0.549722
    106 C34        -3.4530   -0.5470    3.4840 c3        1 MOL     -0.219901
    107 C35        -2.0970   -1.2170    3.7180 c         1 MOL      0.810162
    108 O17        -1.1150   -0.7530    3.1640 o         1 MOL     -0.740445
    109 O18        -2.0000   -2.3070    4.3310 o         1 MOL     -0.740445
    110 H47        -3.1910   -1.2910    0.9200 hn        1 MOL      0.065812
    111 H48        -4.7820   -2.2500    3.2620 h1        1 MOL      0.107050
    112 H49        -3.8150   -0.2740    4.4710 hc        1 MOL      0.070694
    113 H50        -3.2270    0.4290    3.0490 hc        1 MOL      0.070694
    114 N11        -5.6150    0.1510    1.1230 n         1 MOL     -0.823483
    115 C36        -6.7430    0.8500    0.5970 c3        1 MOL      0.492340
    116 C37        -6.4070    2.2230    0.0300 c         1 MOL      0.174674
    117 O19        -6.7180    2.4120   -1.1450 o         1 MOL     -0.392096
    118 C38        -7.5980   -0.0760   -0.3140 c3        1 MOL     -0.215074
    119 C39        -8.9450    0.4870   -0.8360 ca        1 MOL      0.117692
    120 C40        -9.7170    1.2460    0.0370 ca        1 MOL     -0.213064
    121 C41        -9.2800    0.2900   -2.1470 ca        1 MOL     -0.213064
    122 C42       -10.8540    1.9230   -0.4830 ca        1 MOL     -0.054141
    123 C43       -10.2950    1.0120   -2.6870 ca        1 MOL     -0.054141
    124 C44       -11.1080    1.8430   -1.9040 ca        1 MOL     -0.184181
    125 H51        -4.7240    0.1070    0.6370 hn        1 MOL      0.446965
    126 H52        -7.4640    1.1070    1.3710 h1        1 MOL     -0.015389
    127 H53        -7.8150   -0.9760    0.2620 hc        1 MOL      0.080588
    128 H54        -6.9910   -0.4800   -1.1150 hc        1 MOL      0.080588
    129 H55        -9.4380    1.3440    1.0750 ha        1 MOL      0.129558
    130 H56        -8.6050   -0.2790   -2.7760 ha        1 MOL      0.129558
    131 H57       -11.5520    2.4480    0.1650 ha        1 MOL      0.087548
    132 H58       -10.6360    0.9540   -3.7060 ha        1 MOL      0.087548
    133 H59       -11.9400    2.3490   -2.3780 ha        1 MOL      0.110104
    134 N12        -5.7990    3.1290    0.8540 n         1 MOL      0.014763
    135 C45        -5.4050    4.3930    0.3590 c3        1 MOL     -0.085442
    136 C46        -4.3940    4.4330   -0.7250 c         1 MOL      0.179677
    137 O20        -4.3270    5.3800   -1.4840 o         1 MOL     -0.454706
    138 C47        -5.0300    5.2690    1.5600 c3        1 MOL      0.148431
    139 C48        -5.7960    4.6560    2.6910 c3        1 MOL     -0.259790
    140 C49        -5.7560    3.1160    2.3390 c3        1 MOL      0.014750
    141 H60        -6.2820    4.8590   -0.0710 h1        1 MOL      0.081143
    142 H61        -3.9840    5.2930    1.8800 hc        1 MOL      0.022677
    143 H62        -5.2760    6.3180    1.4150 hc        1 MOL      0.022677
    144 H63        -5.2490    4.8470    3.6130 hc        1 MOL      0.064872
    145 H64        -6.8250    5.0300    2.7120 hc        1 MOL      0.064872
    146 H65        -4.8720    2.6620    2.7960 h1        1 MOL      0.077295
    147 H66        -6.5880    2.5580    2.7770 h1        1 MOL      0.077295
    148 N13        -3.7610    3.3120   -0.9290 n         1 MOL      0.070324
    149 C50        -2.9290    3.1500   -2.1400 c3        1 MOL     -0.316975
    150 C51        -3.7120    3.4150   -3.4190 c         1 MOL      0.493162
    151 O21        -3.3620    4.1920   -4.3280 o         1 MOL     -0.517957
    152 C52        -2.2880    1.6850   -2.2760 c3        1 MOL      0.261630
    153 C53        -1.1700    1.3910   -1.2780 c3        1 MOL     -0.243409
    154 C54        -1.7090    0.5410   -0.0410 c         1 MOL      0.992653
    155 O22        -1.0510   -0.4720    0.2880 o         1 MOL     -0.718576
    156 O23        -2.6880    1.0180    0.5350 o         1 MOL     -0.718576
    157 H67        -3.7810    2.5980   -0.2100 hn        1 MOL      0.094363
    158 H68        -2.1230    3.8740   -2.1830 h1        1 MOL      0.147517
    159 H69        -1.9250    1.6460   -3.3010 hc        1 MOL     -0.058652
    160 H70        -3.0100    0.8780   -2.1570 hc        1 MOL     -0.058652
    161 H71        -0.6840    2.3130   -0.9560 hc        1 MOL      0.023836
    162 H72        -0.3870    0.8350   -1.8030 hc        1 MOL      0.023836
    163 N14        -4.9630    2.7930   -3.4550 n         1 MOL     -0.211177
    164 C55        -5.7790    3.0220   -4.6200 c3        1 MOL     -0.268765
    165 H73        -5.5280    3.9890   -5.0540 h1        1 MOL      0.099700
    166 H74        -5.5960    2.2360   -5.3530 h1        1 MOL      0.099700
    167 H75        -6.8310    3.0160   -4.3340 h1        1 MOL      0.099700
    168 H76        -5.3300    2.2230   -2.7030 hn        1 MOL      0.202173
    169 Ca1         0.8100   -1.4870    1.5640 Ca        1 MOL      1.801949
    170 O24         1.1900    1.4970    1.4780 oh        1 MOL     -0.898645
    171 H77         0.8290    2.3810    1.3910 ho        1 MOL      0.415037
    172 H78         2.0120    1.5210    0.9880 ho        1 MOL      0.415037
    173 O25         1.7410   -1.2780   -0.9460 oh        1 MOL     -0.898645
    174 H79         1.8210   -1.9780   -1.5830 ho        1 MOL      0.415037
    175 H80         2.2610   -0.5670   -1.3140 ho        1 MOL      0.415037
    176 O26        -0.0020   -3.4780    3.0940 oh        1 MOL     -0.898645
    177 H81         0.2890   -4.1210    3.7360 ho        1 MOL      0.415037
    178 H82        -0.8110   -3.1250    3.4520 ho        1 MOL      0.415037
    179 O27         2.5940   -3.6030    1.6780 oh        1 MOL     -0.898645
    180 H83         3.3870   -3.7790    2.1800 ho        1 MOL      0.415037
    181 H84         2.1950   -4.4620    1.5530 ho        1 MOL      0.415037
@<TRIPOS>BOND
     1    1    2 1   
     2    1    4 1   
     3    1    5 1   
     4    1    6 1   
     5    2    3 2   
     6    2    7 1   
     7    7    8 1   
     8    7   15 1   
     9    8    9 1   
    10    8   11 1   
    11    8   16 1   
    12    9   10 2   
    13    9   19 1   
    14   11   12 1   
    15   11   17 1   
    16   11   18 1   
    17   12   13 1   
    18   12   14 1   
    19   19   20 1   
    20   19   24 1   
    21   20   21 1   
    22   20   23 1   
    23   20   25 1   
    24   21   22 2   
    25   21   29 1   
    26   23   26 1   
    27   23   27 1   
    28   23   28 1   
    29   29   30 1   
    30   29   37 1   
    31   30   31 1   
    32   30   33 1   
    33   30   38 1   
    34   31   32 2   
    35   31   41 1   
    36   33   34 1   
    37   33   39 1   
    38   33   40 1   
    39   34   35 1   
    40   34   36 1   
    41   41   42 1   
    42   41   45 1   
    43   42   43 1   
    44   42   46 1   
    45   42   47 1   
    46   43   44 2   
    47   43   48 1   
    48   48   49 1   
    49   48   56 1   
    50   49   50 1   
    51   49   52 1   
    52   49   57 1   
    53   50   51 2   
    54   50   62 1   
    55   52   53 1   
    56   52   58 1   
    57   52   59 1   
    58   53   54 1   
    59   53   55 2   
    60   54   60 1   
    61   54   61 1   
    62   62   63 1   
    63   62   66 1   
    64   63   64 1   
    65   63   67 1   
    66   63   68 1   
    67   64   65 2   
    68   64   69 1   
    69   69   70 1   
    70   69   76 1   
    71   70   71 1   
    72   70   73 1   
    73   70   77 1   
    74   71   72 2   
    75   71   83 1   
    76   73   74 1   
    77   73   75 1   
    78   73   78 1   
    79   74   80 1   
    80   74   81 1   
    81   74   82 1   
    82   75   79 1   
    83   83   84 1   
    84   83   91 1   
    85   84   85 1   
    86   84   87 1   
    87   84   92 1   
    88   85   86 2   
    89   85  102 1   
    90   87   88 1   
    91   87   89 1   
    92   87   93 1   
    93   88   90 1   
    94   88   94 1   
    95   88   95 1   
    96   89   96 1   
    97   89   97 1   
    98   89   98 1   
    99   90   99 1   
   100   90  100 1   
   101   90  101 1   
   102  102  103 1   
   103  102  110 1   
   104  103  104 1   
   105  103  106 1   
   106  103  111 1   
   107  104  105 2   
   108  104  114 1   
   109  106  107 1   
   110  106  112 1   
   111  106  113 1   
   112  107  108 1   
   113  107  109 1   
   114  114  115 1   
   115  114  125 1   
   116  115  116 1   
   117  115  118 1   
   118  115  126 1   
   119  116  117 2   
   120  116  134 1   
   121  118  119 1   
   122  118  127 1   
   123  118  128 1   
   124  119  120 ar  
   125  119  121 ar  
   126  120  122 ar  
   127  120  129 1   
   128  121  123 ar  
   129  121  130 1   
   130  122  124 ar  
   131  122  131 1   
   132  123  124 ar  
   133  123  132 1   
   134  124  133 1   
   135  134  135 1   
   136  134  140 1   
   137  135  136 1   
   138  135  138 1   
   139  135  141 1   
   140  136  137 2   
   141  136  148 1   
   142  138  139 1   
   143  138  142 1   
   144  138  143 1   
   145  139  140 1   
   146  139  144 1   
   147  139  145 1   
   148  140  146 1   
   149  140  147 1   
   150  148  149 1   
   151  148  157 1   
   152  149  150 1   
   153  149  152 1   
   154  149  158 1   
   155  150  151 2   
   156  150  163 1   
   157  152  153 1   
   158  152  159 1   
   159  152  160 1   
   160  153  154 1   
   161  153  161 1   
   162  153  162 1   
   163  154  155 1   
   164  154  156 1   
   165  163  164 1   
   166  163  168 1   
   167  164  165 1   
   168  164  166 1   
   169  164  167 1   
   170  170  171 1   
   171  170  172 1   
   172  173  174 1   
   173  173  175 1   
   174  176  177 1   
   175  176  178 1   
   176  179  180 1   
   177  179  181 1   
@<TRIPOS>SUBSTRUCTURE
     1 MOL         1 TEMP              0 ****  ****    0 ROOT
