@<TRIPOS>MOLECULE
MOL
  179   176     1     0     0
SMALL
resp


@<TRIPOS>ATOM
      1 C1          0.5310   -4.5000    5.9770 c3        1 MOL     -0.385584
      2 C2          0.6810   -4.2620    4.4160 c         1 MOL      0.682206
      3 O1         -0.1230   -4.5340    3.5910 o         1 MOL     -0.539063
      4 H1         -0.2620   -5.2260    6.1580 hc        1 MOL      0.111294
      5 H2          1.4700   -4.8800    6.3790 hc        1 MOL      0.111294
      6 H3          0.2800   -3.5590    6.4660 hc        1 MOL      0.111294
      7 N1          1.8620   -3.6680    4.0620 n         1 MOL     -0.450382
      8 C3          2.3040   -3.3590    2.7710 c3        1 MOL     -0.131488
      9 C4          2.9240   -4.6220    2.0930 c         1 MOL      0.617882
     10 O2          3.5370   -5.5000    2.7800 o         1 MOL     -0.580995
     11 C5          3.3120   -2.1900    2.8670 c3        1 MOL      0.121488
     12 C6          3.3580   -1.3910    1.5330 c         1 MOL      0.589107
     13 O3          3.9880   -0.3070    1.5270 o         1 MOL     -0.702607
     14 O4          2.8390   -1.8840    0.5100 o         1 MOL     -0.702607
     15 H4          2.5780   -3.5270    4.7660 hn        1 MOL      0.277316
     16 H5          1.4450   -3.1370    2.1480 h1        1 MOL     -0.037084
     17 H6          4.2960   -2.6420    3.0080 hc        1 MOL      0.007113
     18 H7          3.1110   -1.5690    3.7370 hc        1 MOL      0.007113
     19 N2          2.6810   -4.7220    0.8150 n         1 MOL     -0.185762
     20 C7          3.2940   -5.7160   -0.0880 c3        1 MOL     -0.124181
     21 C8          4.3740   -5.1890   -1.0340 c         1 MOL      0.520339
     22 O5          4.8130   -5.9490   -1.8670 o         1 MOL     -0.513931
     23 C9          2.1650   -6.5660   -0.7640 c3        1 MOL      0.259661
     24 C10         1.6970   -6.0490   -2.1180 c3        1 MOL     -0.426591
     25 C11         1.3500   -4.5420   -2.3520 c3        1 MOL     -0.109723
     26 C12         1.1870   -4.1670   -3.8750 c3        1 MOL     -0.044300
     27 N3          0.7410   -2.8190   -4.0130 n4        1 MOL     -0.160771
     28 H8          2.2960   -3.9010    0.3570 hn        1 MOL      0.190413
     29 H9          3.7380   -6.4150    0.6250 h1        1 MOL      0.109290
     30 H10         1.4110   -6.5270    0.0250 hc        1 MOL     -0.017983
     31 H11         2.4750   -7.6110   -0.8890 hc        1 MOL     -0.017983
     32 H12         0.8700   -6.7070   -2.3790 hc        1 MOL      0.134546
     33 H13         2.5460   -6.2980   -2.7430 hc        1 MOL      0.134546
     34 H14         2.1700   -4.0020   -1.8740 hc        1 MOL      0.097085
     35 H15         0.5310   -4.1680   -1.7440 hc        1 MOL      0.097085
     36 H16         0.5080   -4.8420   -4.3930 hx        1 MOL      0.103772
     37 H17         2.2020   -4.2690   -4.2640 hx        1 MOL      0.103772
     38 H18         1.4080   -2.2580   -3.4910 hn        1 MOL      0.249090
     39 H19         0.9540   -2.5160   -4.9500 hn        1 MOL      0.249090
     40 H20        -0.2180   -2.6260   -3.7900 hn        1 MOL      0.249090
     41 N4          4.6260   -3.8580   -1.0930 n         1 MOL     -0.292824
     42 C13         5.5710   -3.3390   -2.0920 c3        1 MOL     -0.004608
     43 C14         6.6950   -2.4000   -1.4370 c         1 MOL      0.546564
     44 O6          7.6890   -2.1420   -2.0320 o         1 MOL     -0.516021
     45 C15         4.9140   -2.5760   -3.2660 c3        1 MOL     -0.109537
     46 C16         4.0920   -1.5040   -2.7060 c         1 MOL      0.899281
     47 O7          2.8310   -1.5980   -2.6740 o         1 MOL     -0.840567
     48 O8          4.5840   -0.4530   -2.2770 o         1 MOL     -0.840567
     49 H21         4.1810   -3.2130   -0.4560 hn        1 MOL     -0.036859
     50 H22         6.2540   -4.0970   -2.4730 h1        1 MOL      0.112289
     51 H23         4.3720   -3.2730   -3.9090 hc        1 MOL      0.036469
     52 H24         5.7240   -2.1860   -3.8690 hc        1 MOL      0.036469
     53 N5          6.5310   -1.9260   -0.2170 n         1 MOL     -0.403479
     54 C17         7.5600   -1.0220    0.4570 c3        1 MOL     -0.301342
     55 C18         7.4590    0.4750    0.2220 c         1 MOL      0.670300
     56 O9          7.8540    1.3420    1.0420 o         1 MOL     -0.578873
     57 H25         5.6280   -1.9930    0.2280 hn        1 MOL      0.354799
     58 H26         8.5760   -1.2850    0.1690 h1        1 MOL      0.162028
     59 H27         7.4360   -1.1920    1.5240 h1        1 MOL      0.162028
     60 N6          6.8580    0.8460   -0.8850 n         1 MOL     -0.489390
     61 C19         6.8220    2.2310   -1.4620 c3        1 MOL      0.207065
     62 C20         5.4910    2.8950   -1.1390 c         1 MOL      0.754473
     63 O10         4.4490    2.2550   -0.9370 o         1 MOL     -0.724825
     64 C21         7.2080    2.1590   -2.9650 c3        1 MOL     -0.382715
     65 C22         8.5930    1.5150   -3.1930 c         1 MOL      0.747398
     66 N7          8.7710    0.5800   -4.1020 n         1 MOL     -0.853288
     67 O11         9.5790    1.7880   -2.5380 o         1 MOL     -0.534044
     68 H28         6.4660    0.1180   -1.4810 hn        1 MOL      0.344773
     69 H29         7.6530    2.7950   -1.0590 h1        1 MOL      0.019304
     70 H30         7.1810    3.1790   -3.3650 hc        1 MOL      0.082259
     71 H31         6.5470    1.5290   -3.5600 hc        1 MOL      0.082259
     72 H32         8.0130    0.1950   -4.6530 hn        1 MOL      0.385526
     73 H33         9.6870    0.2190   -4.3030 hn        1 MOL      0.385526
     74 N8          5.4230    4.1790   -1.2270 n         1 MOL     -0.553054
     75 C23         4.2410    5.0120   -1.1540 c3        1 MOL      0.087697
     76 C24         3.5340    4.8110    0.2170 c         1 MOL      0.508087
     77 O12         4.1460    4.9860    1.2650 o         1 MOL     -0.490761
     78 H34         6.3090    4.6480   -1.2780 hn        1 MOL      0.338852
     79 H35         3.5500    4.6830   -1.9270 h1        1 MOL      0.041442
     80 H36         4.3430    6.0790   -1.3340 h1        1 MOL      0.041442
     81 N9          2.2420    4.5340    0.1230 n         1 MOL     -0.381042
     82 C25         1.3530    4.3260    1.3420 c3        1 MOL      0.350169
     83 C26         1.3510    2.8680    1.7880 c         1 MOL      0.313649
     84 O13         2.1530    2.0560    1.3880 o         1 MOL     -0.387685
     85 C27        -0.0000    5.0380    1.1560 c3        1 MOL     -0.368231
     86 C28         0.2720    6.5300    0.8740 ca        1 MOL      0.046693
     87 C29        -0.3320    7.0890   -0.2780 ca        1 MOL     -0.069381
     88 C30         1.1480    7.3460    1.6260 ca        1 MOL     -0.069381
     89 C31         0.0060    8.4340   -0.6860 ca        1 MOL     -0.335734
     90 C32         1.4830    8.6410    1.2250 ca        1 MOL     -0.335734
     91 C33         0.9420    9.2350    0.0260 ca        1 MOL      0.340874
     92 O14         1.2870   10.5250   -0.2550 oh        1 MOL     -0.419410
     93 H37         1.7030    4.7650   -0.6980 hn        1 MOL      0.155227
     94 H38         1.8340    4.8980    2.1350 h1        1 MOL      0.057883
     95 H39        -0.5340    5.0410    2.1090 hc        1 MOL      0.111326
     96 H40        -0.6610    4.5470    0.4420 hc        1 MOL      0.111326
     97 H41        -1.0770    6.5500   -0.8500 ha        1 MOL      0.114785
     98 H42         1.5380    6.9490    2.5560 ha        1 MOL      0.114785
     99 H43        -0.3810    8.9730   -1.5430 ha        1 MOL      0.175939
    100 H44         2.0530    9.2450    1.9080 ha        1 MOL      0.175939
    101 H45         0.9650   10.8520   -1.0980 ho        1 MOL      0.344161
    102 N10         0.4000    2.5140    2.6460 n         1 MOL     -0.391808
    103 C34        -0.1430    1.1440    2.9560 c3        1 MOL     -0.290251
    104 C35        -0.4500    0.2420    1.7120 c         1 MOL      0.807228
    105 O15         0.4840   -0.0910    0.9520 o         1 MOL     -0.552929
    106 C36         0.7110    0.4450    4.0420 c3        1 MOL      0.359480
    107 C37         0.1640   -0.8430    4.6250 c3        1 MOL     -0.098850
    108 C38         0.9530    1.5170    5.1670 c3        1 MOL     -0.228394
    109 C39        -0.8260   -0.6970    5.7840 c3        1 MOL     -0.187452
    110 H46        -0.1390    3.3010    2.9760 hn        1 MOL      0.251149
    111 H47        -1.1140    1.3220    3.4140 h1        1 MOL      0.110691
    112 H48         1.6660    0.2300    3.5490 hc        1 MOL     -0.005346
    113 H49         1.0440   -1.3930    4.9440 hc        1 MOL      0.028948
    114 H50        -0.2880   -1.4120    3.8100 hc        1 MOL      0.028948
    115 H51         0.0710    1.9650    5.6270 hc        1 MOL      0.057961
    116 H52         1.5180    0.9640    5.9160 hc        1 MOL      0.057961
    117 H53         1.6400    2.3130    4.8920 hc        1 MOL      0.057961
    118 H54        -0.4940   -0.2180    6.6960 hc        1 MOL      0.050646
    119 H55        -1.6810   -0.1530    5.3730 hc        1 MOL      0.050646
    120 H56        -1.2410   -1.6740    6.0480 hc        1 MOL      0.050646
    121 N11        -1.6470   -0.2250    1.5260 n         1 MOL     -0.644189
    122 C40        -1.9670   -1.3580    0.5940 c3        1 MOL      0.162519
    123 C41        -3.4340   -1.4220    0.2190 c         1 MOL      0.612497
    124 O16        -3.7570   -2.2960   -0.5940 o         1 MOL     -0.572587
    125 C42        -1.6040   -2.7310    1.2450 c3        1 MOL      0.389460
    126 O17        -2.0120   -2.7970    2.5540 oh        1 MOL     -0.610555
    127 H57        -2.3800    0.0650    2.1600 hn        1 MOL      0.311005
    128 H58        -1.4660   -1.2860   -0.3670 h1        1 MOL     -0.069996
    129 H59        -0.5220   -2.8660    1.1690 h1        1 MOL     -0.041292
    130 H60        -2.0060   -3.5340    0.6290 h1        1 MOL     -0.041292
    131 H61        -1.6560   -3.5760    2.9780 ho        1 MOL      0.390839
    132 N12        -4.2920   -0.5710    0.7680 n         1 MOL     -0.596658
    133 C43        -5.6630   -0.3400    0.2500 c3        1 MOL      0.183525
    134 C44        -5.7600    0.3780   -1.1370 c         1 MOL      0.554297
    135 O18        -4.9370    1.2640   -1.4500 o         1 MOL     -0.608852
    136 C45        -6.5200    0.1570    1.3490 c3        1 MOL     -0.251723
    137 H62        -3.9940    0.0460    1.5140 hn        1 MOL      0.300024
    138 H63        -6.0030   -1.3620    0.0320 h1        1 MOL      0.092545
    139 H64        -6.5410   -0.5770    2.1590 hc        1 MOL      0.086929
    140 H65        -6.2110    1.1320    1.7360 hc        1 MOL      0.086929
    141 H66        -7.5510    0.1790    1.0020 hc        1 MOL      0.086929
    142 N13        -6.8110    0.1550   -1.8860 n         1 MOL     -0.503803
    143 C46        -7.9360   -0.8270   -1.6170 c3        1 MOL      0.140366
    144 C47        -9.2230   -0.3080   -2.3170 c         1 MOL      0.250230
    145 O19        -9.2110    0.1490   -3.4750 o         1 MOL     -0.491950
    146 C48        -7.4440   -2.0990   -2.2780 c3        1 MOL     -0.251258
    147 H67        -6.8620    0.7780   -2.6790 hn        1 MOL      0.318484
    148 H68        -8.0370   -0.9410   -0.5380 h1        1 MOL      0.030265
    149 H69        -6.4190   -2.3800   -2.0390 hc        1 MOL      0.086410
    150 H70        -8.1770   -2.8610   -1.9950 hc        1 MOL      0.086410
    151 H71        -7.4730   -1.9970   -3.3590 hc        1 MOL      0.086410
    152 N14       -10.3720   -0.2840   -1.7100 n         1 MOL      0.118387
    153 C49       -10.7090   -0.7860   -0.3790 c3        1 MOL     -0.274567
    154 C50       -10.2920    0.2180    0.7860 c         1 MOL      0.418473
    155 O20       -10.0120   -0.1620    1.9300 o         1 MOL     -0.516612
    156 C51       -12.2440   -1.0510   -0.2920 c3        1 MOL     -0.231079
    157 C52       -13.2370   -0.0280   -0.8580 c3        1 MOL     -0.066686
    158 C53       -13.5110   -0.2190   -2.3440 c         1 MOL      0.698041
    159 O21       -12.8770    0.4080   -3.2000 o         1 MOL     -0.667249
    160 O22       -14.3980   -1.0380   -2.6720 o         1 MOL     -0.667249
    161 H72       -11.1530    0.1540   -2.1710 hn        1 MOL      0.103852
    162 H73       -10.2600   -1.7640   -0.2270 h1        1 MOL      0.135973
    163 H74       -12.4740   -1.0040    0.7730 hc        1 MOL      0.114191
    164 H75       -12.5310   -2.0330   -0.6790 hc        1 MOL      0.114191
    165 H76       -12.9590    1.0020   -0.6480 hc        1 MOL      0.003813
    166 H77       -14.1910   -0.1870   -0.3380 hc        1 MOL      0.003813
    167 N15       -10.3410    1.5060    0.5250 n         1 MOL     -0.175556
    168 C54        -9.6570    2.4860    1.3770 c3        1 MOL     -0.167692
    169 H78        -8.8340    2.9360    0.8230 h1        1 MOL      0.080823
    170 H79       -10.3620    3.2620    1.6770 h1        1 MOL      0.080823
    171 H80        -9.2670    1.9870    2.2640 h1        1 MOL      0.080823
    172 H81       -10.5510    1.8630   -0.3880 hn        1 MOL      0.225856
    173 Ca1         2.5480    0.4130   -0.8010 Ca        1 MOL      1.803674
    174 O23        -0.0500   -0.3770   -2.1910 oh        1 MOL     -0.890668
    175 H82        -0.5080   -1.2120   -2.2150 ho        1 MOL      0.433389
    176 H83        -0.7400    0.2800   -2.3010 ho        1 MOL      0.433389
    177 O24         0.6320    2.4930   -1.1430 oh        1 MOL     -0.890668
    178 H84         0.9830    3.1660   -1.7290 ho        1 MOL      0.433389
    179 H85        -0.3170    2.5480   -1.2450 ho        1 MOL      0.433389
@<TRIPOS>BOND
     1    1    2 1   
     2    1    4 1   
     3    1    5 1   
     4    1    6 1   
     5    2    3 2   
     6    2    7 1   
     7    7    8 1   
     8    7   15 1   
     9    8    9 1   
    10    8   11 1   
    11    8   16 1   
    12    9   10 2   
    13    9   19 1   
    14   11   12 1   
    15   11   17 1   
    16   11   18 1   
    17   12   13 1   
    18   12   14 1   
    19   19   20 1   
    20   19   28 1   
    21   20   21 1   
    22   20   23 1   
    23   20   29 1   
    24   21   22 2   
    25   21   41 1   
    26   23   24 1   
    27   23   30 1   
    28   23   31 1   
    29   24   25 1   
    30   24   32 1   
    31   24   33 1   
    32   25   26 1   
    33   25   34 1   
    34   25   35 1   
    35   26   27 1   
    36   26   36 1   
    37   26   37 1   
    38   27   38 1   
    39   27   39 1   
    40   27   40 1   
    41   41   42 1   
    42   41   49 1   
    43   42   43 1   
    44   42   45 1   
    45   42   50 1   
    46   43   44 2   
    47   43   53 1   
    48   45   46 1   
    49   45   51 1   
    50   45   52 1   
    51   46   47 1   
    52   46   48 1   
    53   53   54 1   
    54   53   57 1   
    55   54   55 1   
    56   54   58 1   
    57   54   59 1   
    58   55   56 2   
    59   55   60 1   
    60   60   61 1   
    61   60   68 1   
    62   61   62 1   
    63   61   64 1   
    64   61   69 1   
    65   62   63 2   
    66   62   74 1   
    67   64   65 1   
    68   64   70 1   
    69   64   71 1   
    70   65   66 1   
    71   65   67 2   
    72   66   72 1   
    73   66   73 1   
    74   74   75 1   
    75   74   78 1   
    76   75   76 1   
    77   75   79 1   
    78   75   80 1   
    79   76   77 2   
    80   76   81 1   
    81   81   82 1   
    82   81   93 1   
    83   82   83 1   
    84   82   85 1   
    85   82   94 1   
    86   83   84 2   
    87   83  102 1   
    88   85   86 1   
    89   85   95 1   
    90   85   96 1   
    91   86   87 ar  
    92   86   88 ar  
    93   87   89 ar  
    94   87   97 1   
    95   88   90 ar  
    96   88   98 1   
    97   89   91 ar  
    98   89   99 1   
    99   90   91 ar  
   100   90  100 1   
   101   91   92 1   
   102   92  101 1   
   103  102  103 1   
   104  102  110 1   
   105  103  104 1   
   106  103  106 1   
   107  103  111 1   
   108  104  105 2   
   109  104  121 1   
   110  106  107 1   
   111  106  108 1   
   112  106  112 1   
   113  107  109 1   
   114  107  113 1   
   115  107  114 1   
   116  108  115 1   
   117  108  116 1   
   118  108  117 1   
   119  109  118 1   
   120  109  119 1   
   121  109  120 1   
   122  121  122 1   
   123  121  127 1   
   124  122  123 1   
   125  122  125 1   
   126  122  128 1   
   127  123  124 2   
   128  123  132 1   
   129  125  126 1   
   130  125  129 1   
   131  125  130 1   
   132  126  131 1   
   133  132  133 1   
   134  132  137 1   
   135  133  134 1   
   136  133  136 1   
   137  133  138 1   
   138  134  135 2   
   139  134  142 1   
   140  136  139 1   
   141  136  140 1   
   142  136  141 1   
   143  142  143 1   
   144  142  147 1   
   145  143  144 1   
   146  143  146 1   
   147  143  148 1   
   148  144  145 2   
   149  144  152 1   
   150  146  149 1   
   151  146  150 1   
   152  146  151 1   
   153  152  153 1   
   154  152  161 1   
   155  153  154 1   
   156  153  156 1   
   157  153  162 1   
   158  154  155 2   
   159  154  167 1   
   160  156  157 1   
   161  156  163 1   
   162  156  164 1   
   163  157  158 1   
   164  157  165 1   
   165  157  166 1   
   166  158  159 1   
   167  158  160 1   
   168  167  168 1   
   169  167  172 1   
   170  168  169 1   
   171  168  170 1   
   172  168  171 1   
   173  174  175 1   
   174  174  176 1   
   175  177  178 1   
   176  177  179 1   
@<TRIPOS>SUBSTRUCTURE
     1 MOL         1 TEMP              0 ****  ****    0 ROOT
