@<TRIPOS>MOLECULE
MOL
  178   175     1     0     0
SMALL
resp


@<TRIPOS>ATOM
      1 C1         -6.2170   -5.2580   -5.3900 c3        1 MOL     -0.318925
      2 C2         -5.6480   -4.0050   -4.8000 c         1 MOL      0.688266
      3 O1         -4.7050   -3.4450   -5.3510 o         1 MOL     -0.590043
      4 H1         -6.0960   -6.0800   -4.6840 hc        1 MOL      0.075531
      5 H2         -7.2760   -5.1120   -5.6010 hc        1 MOL      0.075531
      6 H3         -5.6910   -5.4950   -6.3160 hc        1 MOL      0.075531
      7 N1         -6.1610   -3.4290   -3.7140 n         1 MOL     -0.536936
      8 C3         -7.0470   -3.9630   -2.6730 c3        1 MOL      0.120086
      9 C4         -6.2420   -4.3410   -1.4470 c         1 MOL      0.568921
     10 O2         -5.1690   -3.7920   -1.2350 o         1 MOL     -0.492069
     11 C5         -8.1510   -3.0170   -2.3100 c3        1 MOL     -0.157679
     12 C6         -7.7790   -1.5550   -2.2130 c         1 MOL      0.859617
     13 O3         -8.6870   -0.7230   -2.2670 o         1 MOL     -0.753303
     14 O4         -6.5730   -1.2360   -2.3170 o         1 MOL     -0.753303
     15 H4         -5.7880   -2.5140   -3.5060 hn        1 MOL      0.311099
     16 H5         -7.4570   -4.9160   -3.0140 h1        1 MOL      0.007292
     17 H6         -8.7180   -3.3880   -1.4500 hc        1 MOL      0.026829
     18 H7         -8.8670   -3.0320   -3.1190 hc        1 MOL      0.026829
     19 N2         -6.7030   -5.2760   -0.6500 n         1 MOL     -0.564345
     20 C7         -6.1300   -5.9060    0.6150 c3        1 MOL      0.207945
     21 C8         -5.7720   -4.8420    1.7250 c         1 MOL      0.350318
     22 O5         -5.5190   -5.2360    2.8700 o         1 MOL     -0.519072
     23 C9         -4.9630   -6.8070    0.1850 c3        1 MOL     -0.199618
     24 H8         -7.5530   -5.7060   -0.9930 hn        1 MOL      0.286497
     25 H9         -6.8230   -6.5350    1.1710 h1        1 MOL      0.036127
     26 H10        -4.2280   -6.1620   -0.2990 hc        1 MOL      0.072542
     27 H11        -4.4360   -7.3650    0.9570 hc        1 MOL      0.072542
     28 H12        -5.3470   -7.5390   -0.5330 hc        1 MOL      0.072542
     29 N3         -5.8910   -3.5250    1.5310 n         1 MOL      0.010282
     30 C10        -5.7640   -2.4730    2.5440 c3        1 MOL     -0.317128
     31 C11        -6.5240   -1.1890    2.1490 c         1 MOL      0.477592
     32 O6         -6.7710   -0.8650    0.9450 o         1 MOL     -0.486088
     33 C12        -4.3130   -2.1890    2.8650 c3        1 MOL      0.195417
     34 C13        -3.4440   -1.7570    1.6740 c         1 MOL      0.558069
     35 O7         -2.4290   -2.4000    1.3650 o         1 MOL     -0.635454
     36 O8         -3.7510   -0.6770    1.1090 o         1 MOL     -0.635454
     37 H13        -6.1080   -3.2040    0.5970 hn        1 MOL      0.023975
     38 H14        -6.1920   -2.7410    3.5130 h1        1 MOL      0.088332
     39 H15        -3.8710   -3.0180    3.4250 hc        1 MOL     -0.022374
     40 H16        -4.2540   -1.3260    3.5240 hc        1 MOL     -0.022374
     41 N4         -6.7740   -0.3450    3.1880 n         1 MOL     -0.260521
     42 C14        -7.5860    0.8890    2.9120 c3        1 MOL     -0.335623
     43 C15        -6.7950    2.1070    2.2810 c         1 MOL      0.691643
     44 O9         -6.1350    1.8770    1.2760 o         1 MOL     -0.667127
     45 H17        -6.5640   -0.6090    4.1320 hn        1 MOL      0.294390
     46 H18        -7.9410    1.2830    3.8780 h1        1 MOL      0.129274
     47 H19        -8.4820    0.7510    2.3180 h1        1 MOL      0.129274
     48 N5         -6.9030    3.3210    2.7910 n         1 MOL     -0.515450
     49 C16        -6.3450    4.5200    2.1430 c3        1 MOL      0.127301
     50 C17        -4.7670    4.3330    1.8230 c         1 MOL      0.635387
     51 O10        -3.9370    4.0880    2.6450 o         1 MOL     -0.480974
     52 C18        -6.7830    5.7920    2.8510 c3        1 MOL     -0.283916
     53 C19        -6.6560    7.0600    1.9810 c         1 MOL      0.646672
     54 N6         -6.9450    6.9950    0.7130 n         1 MOL     -0.791738
     55 O11        -6.1120    8.0770    2.3730 o         1 MOL     -0.543153
     56 H20        -7.3870    3.4220    3.6680 hn        1 MOL      0.312873
     57 H21        -6.7660    4.5230    1.1400 h1        1 MOL     -0.024157
     58 H22        -6.3060    5.9760    3.8120 hc        1 MOL      0.100038
     59 H23        -7.8310    5.8140    3.1310 hc        1 MOL      0.100038
     60 H24        -7.3310    6.1710    0.2640 hn        1 MOL      0.371073
     61 H25        -6.5690    7.7860    0.2160 hn        1 MOL      0.371073
     62 N7         -4.4120    4.5220    0.5300 n         1 MOL     -0.457095
     63 C20        -3.0200    4.3910    0.1480 c3        1 MOL     -0.177287
     64 C21        -2.5880    2.9930   -0.2220 c         1 MOL      0.665116
     65 O12        -3.4260    2.2640   -0.7770 o         1 MOL     -0.609875
     66 H26        -5.0770    4.7790   -0.1860 hn        1 MOL      0.277920
     67 H27        -2.3830    4.8630    0.8980 h1        1 MOL      0.133497
     68 H28        -2.9680    5.0710   -0.6970 h1        1 MOL      0.133497
     69 N8         -1.4150    2.5460    0.0970 n         1 MOL     -0.474322
     70 C22        -0.1970    3.2500    0.6250 c3        1 MOL     -0.000756
     71 C23         0.9280    3.1150   -0.3990 c         1 MOL      0.552679
     72 O13         1.6410    4.0780   -0.6170 o         1 MOL     -0.506429
     73 C24         0.1480    2.7690    2.0310 c3        1 MOL      0.471380
     74 C25         1.3300    3.4250    2.6950 c3        1 MOL     -0.557058
     75 O14        -0.9970    2.9500    2.8940 oh        1 MOL     -0.604720
     76 H29        -1.3060    1.5940   -0.2430 hn        1 MOL      0.183170
     77 H30        -0.3890    4.3260    0.6840 h1        1 MOL      0.054618
     78 H31         0.3880    1.7220    1.9280 h1        1 MOL     -0.011290
     79 H32        -0.9010    2.2180    3.5090 ho        1 MOL      0.387538
     80 H33         1.6990    2.7450    3.4750 hc        1 MOL      0.151128
     81 H34         2.0800    3.5440    1.9170 hc        1 MOL      0.151128
     82 H35         1.0990    4.4080    3.1130 hc        1 MOL      0.151128
     83 N9          1.0570    1.9770   -1.0360 n         1 MOL     -0.283269
     84 C26         2.1810    1.5600   -1.9090 c3        1 MOL     -0.662934
     85 C27         2.2530    2.4260   -3.1740 c         1 MOL      0.773573
     86 O15         1.3050    2.5060   -3.9200 o         1 MOL     -0.589542
     87 C28         2.2430   -0.0280   -2.1980 c3        1 MOL      0.224086
     88 C29         0.9620   -0.6540   -2.9470 c3        1 MOL      0.046646
     89 C30         2.5920   -0.8510   -0.9680 c3        1 MOL     -0.119135
     90 C31         1.0550   -2.1640   -3.1250 c3        1 MOL     -0.364270
     91 H36         0.3880    1.2680   -0.7950 hn        1 MOL      0.338542
     92 H37         3.1110    1.7660   -1.3600 h1        1 MOL      0.240230
     93 H38         3.1060   -0.0640   -2.8590 hc        1 MOL      0.046069
     94 H39         0.7670   -0.2000   -3.9170 hc        1 MOL      0.019695
     95 H40         0.1060   -0.5290   -2.2800 hc        1 MOL      0.019695
     96 H41         2.8640   -1.8860   -1.1500 hc        1 MOL      0.044347
     97 H42         3.4830   -0.4190   -0.5140 hc        1 MOL      0.044347
     98 H43         1.7650   -0.8060   -0.2560 hc        1 MOL      0.044347
     99 H44         1.9080   -2.4830   -3.7150 hc        1 MOL      0.090530
    100 H45         1.1100   -2.5840   -2.1220 hc        1 MOL      0.090530
    101 H46         0.0560   -2.4160   -3.4980 hc        1 MOL      0.090530
    102 N10         3.3840    3.1200   -3.4010 n         1 MOL     -0.645772
    103 C32         4.5400    3.3980   -2.4280 c3        1 MOL      0.461899
    104 C33         5.5380    2.2170   -2.3250 c         1 MOL      0.513702
    105 O16         5.4840    1.2830   -3.1590 o         1 MOL     -0.605964
    106 C34         5.1940    4.7200   -2.7720 c3        1 MOL     -0.305519
    107 C35         6.0280    5.4410   -1.7250 c         1 MOL      0.741437
    108 O17         6.3830    4.8910   -0.7020 o         1 MOL     -0.733045
    109 O18         6.4630    6.5900   -2.1370 o         1 MOL     -0.733045
    110 H47         3.4250    3.6630   -4.2580 hn        1 MOL      0.305271
    111 H48         4.1060    3.6290   -1.4610 h1        1 MOL     -0.024466
    112 H49         4.4120    5.4110   -3.0930 hc        1 MOL      0.045326
    113 H50         5.7950    4.6550   -3.6810 hc        1 MOL      0.045326
    114 N11         6.4560    2.2230   -1.3380 n         1 MOL     -0.849388
    115 C36         7.4930    1.2670   -1.0130 c3        1 MOL      0.857718
    116 C37         7.9240    1.3320    0.5190 c         1 MOL     -0.060854
    117 O19         7.9550    2.4300    1.0980 o         1 MOL     -0.413391
    118 C38         8.6420    1.4390   -1.9310 c3        1 MOL     -0.230091
    119 C39         9.5640    0.2470   -1.9490 ca        1 MOL      0.131849
    120 C40        10.6110    0.1680   -1.0370 ca        1 MOL     -0.199453
    121 C41         9.3310   -0.8280   -2.8020 ca        1 MOL     -0.199453
    122 C42        11.5200   -0.9590   -1.1460 ca        1 MOL     -0.094497
    123 C43        10.2430   -1.9460   -2.8770 ca        1 MOL     -0.094497
    124 C44        11.2990   -2.0300   -2.0130 ca        1 MOL     -0.163537
    125 H51         6.4290    3.0780   -0.8080 hn        1 MOL      0.417935
    126 H52         7.0020    0.3330   -1.2720 h1        1 MOL     -0.059898
    127 H53         9.3260    2.2230   -1.5790 hc        1 MOL      0.062517
    128 H54         8.3050    1.7270   -2.9200 hc        1 MOL      0.062517
    129 H55        10.6690    0.8770   -0.2280 ha        1 MOL      0.129288
    130 H56         8.4990   -0.8090   -3.4830 ha        1 MOL      0.129288
    131 H57        12.3320   -1.1030   -0.4520 ha        1 MOL      0.093317
    132 H58        10.1010   -2.7480   -3.5820 ha        1 MOL      0.093317
    133 H59        11.9800   -2.8660   -2.0790 ha        1 MOL      0.109076
    134 N12         8.1900    0.2260    1.2220 n         1 MOL      0.358103
    135 C45         8.0650   -1.2030    0.9180 c3        1 MOL     -0.143217
    136 C46         6.6750   -1.8000    1.0830 c         1 MOL      0.636111
    137 O20         5.7360   -1.0930    0.6020 o         1 MOL     -0.623248
    138 C47         9.1130   -1.8780    1.7280 c3        1 MOL     -0.053299
    139 C48         9.2340   -1.0390    3.0090 c3        1 MOL      0.129860
    140 C49         8.8140    0.3450    2.5170 c3        1 MOL     -0.215724
    141 H60         8.2160   -1.3370   -0.1480 h1        1 MOL      0.005658
    142 H61         8.9230   -2.9170    2.0110 hc        1 MOL     -0.008968
    143 H62        10.0790   -1.7460    1.2470 hc        1 MOL     -0.008968
    144 H63         8.6080   -1.4220    3.8080 hc        1 MOL     -0.011495
    145 H64        10.2820   -1.1350    3.2750 hc        1 MOL     -0.011495
    146 H65         8.0470    0.7430    3.1870 h1        1 MOL      0.064350
    147 H66         9.7140    0.9650    2.4850 h1        1 MOL      0.064350
    148 N13         6.4670   -2.9440    1.7160 n         1 MOL     -0.516147
    149 C50         5.1630   -3.6240    1.7670 c3        1 MOL      0.446313
    150 C51         5.2080   -5.1510    1.5810 c         1 MOL      0.271466
    151 O21         4.6120   -5.8450    2.4390 o         1 MOL     -0.496790
    152 C52         4.4160   -3.0740    3.0600 c3        1 MOL     -0.021238
    153 C53         5.0610   -3.2940    4.4530 c3        1 MOL     -0.095323
    154 C54         4.2780   -2.7680    5.6750 c         1 MOL      0.773414
    155 O22         4.8760   -2.5090    6.7190 o         1 MOL     -0.758354
    156 O23         3.0650   -2.5030    5.5870 o         1 MOL     -0.758354
    157 H67         7.2830   -3.3010    2.1890 hn        1 MOL      0.286340
    158 H68         4.6000   -3.2070    0.9300 h1        1 MOL     -0.035951
    159 H69         3.4370   -3.5420    3.0220 hc        1 MOL      0.001174
    160 H70         4.3550   -1.9890    2.9340 hc        1 MOL      0.001174
    161 H71         6.0120   -2.7640    4.4700 hc        1 MOL     -0.041175
    162 H72         5.2630   -4.3560    4.6380 hc        1 MOL     -0.041175
    163 N14         5.8420   -5.7960    0.6190 n         1 MOL     -0.314562
    164 C55         6.3860   -5.1310   -0.5400 c3        1 MOL     -0.005878
    165 H73         6.2400   -4.0560   -0.4430 h1        1 MOL      0.034708
    166 H74         7.4520   -5.3470   -0.6170 h1        1 MOL      0.034708
    167 H75         5.8770   -5.4860   -1.4360 h1        1 MOL      0.034708
    168 H76         5.8970   -6.7990    0.7090 hn        1 MOL      0.265735
    169 Ca1        -5.1090    0.3190   -0.9230 Ca        1 MOL      1.735510
    170 O24        -5.7020    1.5300   -3.4470 oh        1 MOL     -0.837838
    171 H77        -5.5950    1.0620   -4.2770 ho        1 MOL      0.407729
    172 H78        -6.5900    1.8960   -3.4880 ho        1 MOL      0.407729
    173 O25        -3.1270   -0.3670   -2.3810 oh        1 MOL     -0.837838
    174 H79        -2.9030   -1.2760   -2.6100 ho        1 MOL      0.407729
    175 H80        -2.6290    0.1610   -3.0010 ho        1 MOL      0.407729
    176 O26        -7.5690    1.2010   -0.9630 oh        1 MOL     -0.837838
    177 H81        -8.2100    0.7410   -1.4990 ho        1 MOL      0.407729
    178 H82        -8.0390    1.9440   -0.5950 ho        1 MOL      0.407729
@<TRIPOS>BOND
     1    1    2 1   
     2    1    4 1   
     3    1    5 1   
     4    1    6 1   
     5    2    3 2   
     6    2    7 1   
     7    7    8 1   
     8    7   15 1   
     9    8    9 1   
    10    8   11 1   
    11    8   16 1   
    12    9   10 2   
    13    9   19 1   
    14   11   12 1   
    15   11   17 1   
    16   11   18 1   
    17   12   13 1   
    18   12   14 1   
    19   19   20 1   
    20   19   24 1   
    21   20   21 1   
    22   20   23 1   
    23   20   25 1   
    24   21   22 2   
    25   21   29 1   
    26   23   26 1   
    27   23   27 1   
    28   23   28 1   
    29   29   30 1   
    30   29   37 1   
    31   30   31 1   
    32   30   33 1   
    33   30   38 1   
    34   31   32 2   
    35   31   41 1   
    36   33   34 1   
    37   33   39 1   
    38   33   40 1   
    39   34   35 1   
    40   34   36 1   
    41   41   42 1   
    42   41   45 1   
    43   42   43 1   
    44   42   46 1   
    45   42   47 1   
    46   43   44 2   
    47   43   48 1   
    48   48   49 1   
    49   48   56 1   
    50   49   50 1   
    51   49   52 1   
    52   49   57 1   
    53   50   51 2   
    54   50   62 1   
    55   52   53 1   
    56   52   58 1   
    57   52   59 1   
    58   53   54 1   
    59   53   55 2   
    60   54   60 1   
    61   54   61 1   
    62   62   63 1   
    63   62   66 1   
    64   63   64 1   
    65   63   67 1   
    66   63   68 1   
    67   64   65 2   
    68   64   69 1   
    69   69   70 1   
    70   69   76 1   
    71   70   71 1   
    72   70   73 1   
    73   70   77 1   
    74   71   72 2   
    75   71   83 1   
    76   73   74 1   
    77   73   75 1   
    78   73   78 1   
    79   74   80 1   
    80   74   81 1   
    81   74   82 1   
    82   75   79 1   
    83   83   84 1   
    84   83   91 1   
    85   84   85 1   
    86   84   87 1   
    87   84   92 1   
    88   85   86 2   
    89   85  102 1   
    90   87   88 1   
    91   87   89 1   
    92   87   93 1   
    93   88   90 1   
    94   88   94 1   
    95   88   95 1   
    96   89   96 1   
    97   89   97 1   
    98   89   98 1   
    99   90   99 1   
   100   90  100 1   
   101   90  101 1   
   102  102  103 1   
   103  102  110 1   
   104  103  104 1   
   105  103  106 1   
   106  103  111 1   
   107  104  105 2   
   108  104  114 1   
   109  106  107 1   
   110  106  112 1   
   111  106  113 1   
   112  107  108 1   
   113  107  109 1   
   114  114  115 1   
   115  114  125 1   
   116  115  116 1   
   117  115  118 1   
   118  115  126 1   
   119  116  117 2   
   120  116  134 1   
   121  118  119 1   
   122  118  127 1   
   123  118  128 1   
   124  119  120 ar  
   125  119  121 ar  
   126  120  122 ar  
   127  120  129 1   
   128  121  123 ar  
   129  121  130 1   
   130  122  124 ar  
   131  122  131 1   
   132  123  124 ar  
   133  123  132 1   
   134  124  133 1   
   135  134  135 1   
   136  134  140 1   
   137  135  136 1   
   138  135  138 1   
   139  135  141 1   
   140  136  137 2   
   141  136  148 1   
   142  138  139 1   
   143  138  142 1   
   144  138  143 1   
   145  139  140 1   
   146  139  144 1   
   147  139  145 1   
   148  140  146 1   
   149  140  147 1   
   150  148  149 1   
   151  148  157 1   
   152  149  150 1   
   153  149  152 1   
   154  149  158 1   
   155  150  151 2   
   156  150  163 1   
   157  152  153 1   
   158  152  159 1   
   159  152  160 1   
   160  153  154 1   
   161  153  161 1   
   162  153  162 1   
   163  154  155 1   
   164  154  156 1   
   165  163  164 1   
   166  163  168 1   
   167  164  165 1   
   168  164  166 1   
   169  164  167 1   
   170  170  171 1   
   171  170  172 1   
   172  173  174 1   
   173  173  175 1   
   174  176  177 1   
   175  176  178 1   
@<TRIPOS>SUBSTRUCTURE
     1 MOL         1 TEMP              0 ****  ****    0 ROOT
