@<TRIPOS>MOLECULE
MOL
  192   187     1     0     0
SMALL
resp


@<TRIPOS>ATOM
      1 C1          9.0490    2.0400    0.9650 c3        1 MOL     -0.594093
      2 C2          7.8810    1.4560    0.2130 c         1 MOL      0.781117
      3 O1          6.6910    1.5860    0.5680 o         1 MOL     -0.671632
      4 H1          8.9910    3.1280    0.9370 hc        1 MOL      0.152954
      5 H2          9.0210    1.7020    2.0000 hc        1 MOL      0.152954
      6 H3          9.9800    1.7140    0.5010 hc        1 MOL      0.152954
      7 N1          8.1740    0.7380   -0.9300 n         1 MOL     -0.515753
      8 C3          7.1380    0.1920   -1.8000 c3        1 MOL     -0.068123
      9 C4          6.7100   -1.1700   -1.3720 c         1 MOL      0.570685
     10 O2          5.9960   -1.8020   -2.1270 o         1 MOL     -0.466502
     11 C5          7.5950    0.2680   -3.2820 c3        1 MOL     -0.221138
     12 C6          8.9450   -0.4500   -3.4060 c         1 MOL      0.723277
     13 O3          8.9250   -1.6910   -3.4880 o         1 MOL     -0.659887
     14 O4         10.0240    0.1560   -3.2830 o         1 MOL     -0.659887
     15 H4          9.1380    0.4740   -1.0680 hn        1 MOL      0.270327
     16 H5          6.2550    0.8290   -1.8200 h1        1 MOL      0.182834
     17 H6          7.8190    1.2930   -3.5530 hc        1 MOL      0.067097
     18 H7          6.8170   -0.0260   -3.9860 hc        1 MOL      0.067097
     19 N2          7.0170   -1.6590   -0.1450 n         1 MOL     -0.269489
     20 C7          6.6490   -2.9510    0.4040 c3        1 MOL     -0.093885
     21 C8          5.2140   -3.3370    0.4280 c         1 MOL      0.581514
     22 O5          4.9700   -4.5310    0.2020 o         1 MOL     -0.577631
     23 C9          7.2530   -3.2390    1.7890 c3        1 MOL     -0.015724
     24 C10         8.7900   -3.1190    1.7810 c3        1 MOL     -0.078939
     25 C11         9.4020   -3.7370    3.1130 c3        1 MOL      0.071050
     26 C12        10.7520   -3.1450    3.3290 c3        1 MOL      0.100433
     27 N3         11.3470   -3.5540    4.5580 n4        1 MOL     -0.250903
     28 H8          7.5950   -1.0590    0.4330 hn        1 MOL      0.172933
     29 H9          7.0540   -3.6330   -0.3490 h1        1 MOL      0.136293
     30 H10         6.8510   -4.1940    2.1360 hc        1 MOL      0.028398
     31 H11         6.8710   -2.5000    2.4920 hc        1 MOL      0.028398
     32 H12         9.1680   -2.1010    1.6990 hc        1 MOL      0.045015
     33 H13         9.2160   -3.6290    0.9160 hc        1 MOL      0.045015
     34 H14         9.4420   -4.8270    3.1020 hc        1 MOL      0.002971
     35 H15         8.6800   -3.4090    3.8580 hc        1 MOL      0.002971
     36 H16        10.5940   -2.0650    3.3210 hx        1 MOL      0.043868
     37 H17        11.4110   -3.3280    2.4830 hx        1 MOL      0.043868
     38 H18        12.2000   -3.0300    4.7050 hn        1 MOL      0.244436
     39 H19        10.7740   -3.4480    5.3890 hn        1 MOL      0.244436
     40 H20        11.5850   -4.5330    4.5110 hn        1 MOL      0.244436
     41 N4          4.1310   -2.5680    0.5430 n         1 MOL     -0.542137
     42 C13         4.0390   -1.1740    0.9970 c3        1 MOL      0.397079
     43 C14         3.8780   -0.0980   -0.0540 c         1 MOL     -0.097318
     44 O6          3.5740   -0.4300   -1.2110 o         1 MOL     -0.357988
     45 C15         2.8450   -1.1340    1.9890 c3        1 MOL     -0.391769
     46 C16         1.5380   -1.6980    1.4460 c         1 MOL      0.816471
     47 O7          0.9970   -1.0230    0.5730 o         1 MOL     -0.723920
     48 O8          1.0580   -2.7950    1.8180 o         1 MOL     -0.723920
     49 H21         3.2530   -3.0060    0.2780 hn        1 MOL      0.407579
     50 H22         4.9490   -0.9020    1.5320 h1        1 MOL      0.020339
     51 H23         2.7990   -0.0990    2.3280 hc        1 MOL      0.047236
     52 H24         3.2160   -1.5960    2.8980 hc        1 MOL      0.047236
     53 N5          3.9590    1.1700    0.3550 n         1 MOL     -0.084053
     54 C17         3.9310    2.4130   -0.4950 c3        1 MOL     -0.167785
     55 C18         2.4430    2.8400   -0.9970 c         1 MOL      0.500996
     56 O9          1.3550    2.4730   -0.4940 o         1 MOL     -0.587338
     57 H25         4.0330    1.2220    1.3590 hn        1 MOL      0.254963
     58 H26         4.5190    2.2110   -1.3950 h1        1 MOL      0.121633
     59 H27         4.4520    3.1820    0.0740 h1        1 MOL      0.121633
     60 N6          2.4570    3.5770   -2.0970 n         1 MOL     -0.406466
     61 C19         1.2960    4.2870   -2.6340 c3        1 MOL      0.294647
     62 C20         1.7050    5.7890   -2.8350 c         1 MOL      0.355263
     63 O10         2.8800    6.0370   -3.1020 o         1 MOL     -0.531665
     64 C21         0.7920    3.6550   -3.9850 c3        1 MOL     -0.204621
     65 C22         0.5800    2.2150   -3.7500 c         1 MOL      0.593317
     66 O11        -0.4200    1.9490   -3.0140 o         1 MOL     -0.628335
     67 O12         1.3610    1.4220   -4.2980 o         1 MOL     -0.628335
     68 H28         3.3790    3.7200   -2.4880 hn        1 MOL      0.285013
     69 H29         0.5060    4.3420   -1.8820 h1        1 MOL      0.042049
     70 H30         1.5540    3.8510   -4.7350 hc        1 MOL      0.065867
     71 H31        -0.1470    4.1780   -4.1740 hc        1 MOL      0.065867
     72 N7          0.8590    6.8010   -2.8260 n         1 MOL     -0.310948
     73 C23        -0.6560    6.6680   -2.7430 c3        1 MOL     -0.304079
     74 C24        -1.0860    6.4550   -1.3400 c         1 MOL      0.701462
     75 O13        -0.6320    7.0580   -0.3440 o         1 MOL     -0.538418
     76 H32         1.3320    7.6920   -2.8340 hn        1 MOL      0.308258
     77 H33        -1.0750    5.8560   -3.3290 h1        1 MOL      0.144045
     78 H34        -1.0610    7.5970   -3.1430 h1        1 MOL      0.144045
     79 N8         -2.0130    5.4500   -1.1330 n         1 MOL     -0.659066
     80 C25        -2.6470    5.0410    0.0980 c3        1 MOL     -0.016773
     81 C26        -1.9500    3.7740    0.6450 c         1 MOL      0.925617
     82 O14        -1.6400    2.8460   -0.1600 o         1 MOL     -0.702676
     83 C27        -4.1890    4.9070   -0.1800 c3        1 MOL      0.417693
     84 C28        -5.0180    4.5350    1.0820 c3        1 MOL     -0.334822
     85 O15        -4.4310    3.8950   -1.1600 oh        1 MOL     -0.606509
     86 H35        -2.3770    5.0870   -2.0070 hn        1 MOL      0.267210
     87 H36        -2.5160    5.8830    0.7740 h1        1 MOL      0.053282
     88 H37        -4.6040    5.8550   -0.5310 h1        1 MOL     -0.005718
     89 H38        -3.6790    3.8180   -1.7500 ho        1 MOL      0.386674
     90 H39        -5.0230    5.4040    1.7270 hc        1 MOL      0.073737
     91 H40        -6.0120    4.2250    0.7340 hc        1 MOL      0.073737
     92 H41        -4.6000    3.6320    1.5340 hc        1 MOL      0.073737
     93 N9         -1.8920    3.6390    1.9510 n         1 MOL     -0.595964
     94 C29        -1.2250    2.6630    2.9230 c3        1 MOL     -0.074439
     95 C30        -1.6460    1.1650    2.6820 c         1 MOL      0.796291
     96 O16        -1.3230    0.5270    1.6740 o         1 MOL     -0.611555
     97 C31         0.3320    2.7720    3.1000 c3        1 MOL      0.093168
     98 C32         0.7350    4.1660    3.5150 c3        1 MOL     -0.046047
     99 C33         0.9340    1.7820    4.1350 c3        1 MOL     -0.351697
    100 C34         0.3130    4.6410    4.9230 c3        1 MOL     -0.352736
    101 H42        -2.4130    4.3490    2.4470 hn        1 MOL      0.296535
    102 H43        -1.5960    2.9460    3.9040 h1        1 MOL      0.063199
    103 H44         0.7100    2.5330    2.1080 hc        1 MOL     -0.030552
    104 H45         0.4170    4.8770    2.7520 hc        1 MOL      0.063189
    105 H46         1.8240    4.2380    3.4980 hc        1 MOL      0.063189
    106 H47         2.0000    1.9880    4.2580 hc        1 MOL      0.113748
    107 H48         0.4990    1.9180    5.1260 hc        1 MOL      0.113748
    108 H49         0.7670    0.7630    3.8100 hc        1 MOL      0.113748
    109 H50        -0.7580    4.8230    4.8410 hc        1 MOL      0.095451
    110 H51         0.6210    3.9100    5.6750 hc        1 MOL      0.095451
    111 H52         0.8130    5.5950    5.1390 hc        1 MOL      0.095451
    112 N10        -2.3530    0.6200    3.6630 n         1 MOL     -0.529642
    113 C35        -2.6620   -0.8220    3.8510 c3        1 MOL     -0.006218
    114 C36        -4.1270   -1.2870    3.5530 c         1 MOL      0.412211
    115 O17        -4.4570   -2.4450    3.6570 o         1 MOL     -0.510591
    116 C37        -2.4170   -1.1590    5.3630 c3        1 MOL      0.579080
    117 C38        -3.4590   -0.6270    6.3780 c3        1 MOL     -0.444697
    118 O18        -1.1370   -0.7590    5.8340 oh        1 MOL     -0.664108
    119 H53        -2.4860    1.1760    4.4940 hn        1 MOL      0.255670
    120 H54        -2.0700   -1.4830    3.2240 h1        1 MOL      0.062027
    121 H55        -2.3900   -2.2370    5.5010 h1        1 MOL     -0.042556
    122 H56        -0.5180   -1.0630    5.1790 ho        1 MOL      0.384484
    123 H57        -3.0400   -0.7850    7.3680 hc        1 MOL      0.115051
    124 H58        -3.6320    0.4380    6.2530 hc        1 MOL      0.115051
    125 H59        -4.3490   -1.2340    6.2310 hc        1 MOL      0.115051
    126 N11        -4.9570   -0.3690    3.0080 n         1 MOL     -0.165580
    127 C39        -6.2390   -0.6560    2.3640 c3        1 MOL     -0.112838
    128 C40        -6.0680   -1.1060    0.8990 c         1 MOL      0.607527
    129 O19        -5.4630   -0.3070    0.1560 o         1 MOL     -0.485424
    130 C41        -7.0670    0.6110    2.3690 c3        1 MOL      0.052959
    131 C42        -7.8050    0.6700    3.7480 c3        1 MOL     -0.382865
    132 O20        -6.3410    1.8200    2.2360 oh        1 MOL     -0.483564
    133 H60        -4.7050    0.6050    2.9920 hn        1 MOL      0.196912
    134 H61        -6.6960   -1.5140    2.8570 h1        1 MOL      0.088030
    135 H62        -7.8360    0.5800    1.5880 h1        1 MOL      0.093719
    136 H63        -6.9370    2.5290    2.0200 ho        1 MOL      0.388207
    137 H64        -8.7300    1.2480    3.8000 hc        1 MOL      0.107750
    138 H65        -8.2550   -0.2650    4.0630 hc        1 MOL      0.107750
    139 H66        -7.0950    1.1550    4.4150 hc        1 MOL      0.107750
    140 N12        -6.5120   -2.3080    0.5090 n         1 MOL     -0.478031
    141 C43        -6.4880   -2.9630   -0.8450 c3        1 MOL      0.057817
    142 C44        -5.1310   -2.8980   -1.5020 c         1 MOL      0.523613
    143 O21        -5.0540   -2.2050   -2.5120 o         1 MOL     -0.518406
    144 C45        -7.5570   -2.2440   -1.6770 c3        1 MOL     -0.244330
    145 C46        -8.9890   -2.1800   -1.1150 c3        1 MOL      0.094377
    146 C47        -9.8940   -1.4470   -2.0280 c3        1 MOL     -0.107292
    147 C48       -11.2810   -1.6020   -1.3760 c3        1 MOL      0.157047
    148 N13       -12.2100   -0.6840   -2.0450 n4        1 MOL     -0.208758
    149 H67        -7.0310   -2.7310    1.2570 hn        1 MOL      0.271635
    150 H68        -6.8850   -3.9710   -0.7140 h1        1 MOL      0.087819
    151 H69        -7.6910   -2.6980   -2.6580 hc        1 MOL      0.098190
    152 H70        -7.2840   -1.2090   -1.8670 hc        1 MOL      0.098190
    153 H71        -8.9130   -1.5760   -0.2120 hc        1 MOL      0.005086
    154 H72        -9.2750   -3.2030   -0.8690 hc        1 MOL      0.005086
    155 H73       -10.0040   -1.9160   -2.9990 hc        1 MOL      0.058284
    156 H74        -9.5950   -0.4090   -2.1400 hc        1 MOL      0.058284
    157 H75       -11.1430   -1.3130   -0.3280 hx        1 MOL      0.016515
    158 H76       -11.6820   -2.6170   -1.3790 hx        1 MOL      0.016515
    159 H77       -13.0210   -0.6270   -1.4420 hn        1 MOL      0.201769
    160 H78       -11.6990    0.1790   -2.1620 hn        1 MOL      0.201769
    161 H79       -12.4550   -1.0860   -2.9400 hn        1 MOL      0.201769
    162 N14        -4.1280   -3.6180   -1.0640 n         1 MOL     -0.529915
    163 C49        -2.8090   -3.6570   -1.7130 c3        1 MOL      0.175594
    164 C50        -1.6080   -3.1570   -0.8360 c         1 MOL      0.165024
    165 O22        -0.8390   -2.3340   -1.3030 o         1 MOL     -0.415872
    166 C51        -2.5960   -5.1440   -2.1530 c3        1 MOL     -0.052886
    167 C52        -3.4720   -5.3360   -3.3850 c3        1 MOL     -0.344929
    168 C53        -3.3370   -6.6820   -3.9860 c         1 MOL      0.724649
    169 O23        -3.4490   -6.8250   -5.2360 o         1 MOL     -0.624310
    170 O24        -3.1190   -7.7030   -3.3040 o         1 MOL     -0.624310
    171 H80        -4.2930   -4.3110   -0.3450 hn        1 MOL      0.319804
    172 H81        -2.8640   -3.0320   -2.6090 h1        1 MOL      0.115049
    173 H82        -2.8080   -5.8490   -1.3440 hc        1 MOL      0.084747
    174 H83        -1.5770   -5.3620   -2.4650 hc        1 MOL      0.084747
    175 H84        -3.1940   -4.5970   -4.1250 hc        1 MOL      0.094110
    176 H85        -4.5120   -5.1460   -3.1300 hc        1 MOL      0.094110
    177 N15        -1.4140   -3.5720    0.4380 n         1 MOL     -0.188644
    178 C54        -1.7870   -4.8300    1.0240 c3        1 MOL      0.023657
    179 H86        -2.5800   -4.6700    1.7540 h1        1 MOL      0.010191
    180 H87        -2.1420   -5.5030    0.2450 h1        1 MOL      0.010191
    181 H88        -0.9220   -5.2710    1.5190 h1        1 MOL      0.010191
    182 H89        -0.6660   -3.1250    0.9390 hn        1 MOL      0.305183
    183 Ca1        -0.3890    0.4550   -0.9980 Ca        1 MOL      1.756598
    184 O25         1.1740   -0.7840   -2.9310 oh        1 MOL     -0.868069
    185 H90         1.1510   -0.0120   -3.4890 ho        1 MOL      0.407865
    186 H91         2.0670   -0.8270   -2.6000 ho        1 MOL      0.407865
    187 O26        -1.7070   -0.2810   -3.2960 oh        1 MOL     -0.868069
    188 H92        -1.6000   -1.0540   -3.8640 ho        1 MOL      0.407865
    189 H93        -1.2600    0.4160   -3.7700 ho        1 MOL      0.407865
    190 O27        -3.0170   -0.1990   -0.9120 oh        1 MOL     -0.868069
    191 H94        -3.3200   -0.5840   -1.7340 ho        1 MOL      0.407865
    192 H95        -3.7980   -0.1930   -0.3520 ho        1 MOL      0.407865
@<TRIPOS>BOND
     1    1    2 1   
     2    1    4 1   
     3    1    5 1   
     4    1    6 1   
     5    2    3 2   
     6    2    7 1   
     7    7    8 1   
     8    7   15 1   
     9    8    9 1   
    10    8   11 1   
    11    8   16 1   
    12    9   10 2   
    13    9   19 1   
    14   11   12 1   
    15   11   17 1   
    16   11   18 1   
    17   12   13 1   
    18   12   14 1   
    19   19   20 1   
    20   19   28 1   
    21   20   21 1   
    22   20   23 1   
    23   20   29 1   
    24   21   22 2   
    25   21   41 1   
    26   23   24 1   
    27   23   30 1   
    28   23   31 1   
    29   24   25 1   
    30   24   32 1   
    31   24   33 1   
    32   25   26 1   
    33   25   34 1   
    34   25   35 1   
    35   26   27 1   
    36   26   36 1   
    37   26   37 1   
    38   27   38 1   
    39   27   39 1   
    40   27   40 1   
    41   41   42 1   
    42   41   49 1   
    43   42   43 1   
    44   42   45 1   
    45   42   50 1   
    46   43   44 2   
    47   43   53 1   
    48   45   46 1   
    49   45   51 1   
    50   45   52 1   
    51   46   47 1   
    52   46   48 1   
    53   53   54 1   
    54   53   57 1   
    55   54   55 1   
    56   54   58 1   
    57   54   59 1   
    58   55   56 2   
    59   55   60 1   
    60   60   61 1   
    61   60   68 1   
    62   61   62 1   
    63   61   64 1   
    64   61   69 1   
    65   62   63 2   
    66   62   72 1   
    67   64   65 1   
    68   64   70 1   
    69   64   71 1   
    70   65   66 1   
    71   65   67 1   
    72   72   73 1   
    73   72   76 1   
    74   73   74 1   
    75   73   77 1   
    76   73   78 1   
    77   74   75 2   
    78   74   79 1   
    79   79   80 1   
    80   79   86 1   
    81   80   81 1   
    82   80   83 1   
    83   80   87 1   
    84   81   82 2   
    85   81   93 1   
    86   83   84 1   
    87   83   85 1   
    88   83   88 1   
    89   84   90 1   
    90   84   91 1   
    91   84   92 1   
    92   85   89 1   
    93   93   94 1   
    94   93  101 1   
    95   94   95 1   
    96   94   97 1   
    97   94  102 1   
    98   95   96 2   
    99   95  112 1   
   100   97   98 1   
   101   97   99 1   
   102   97  103 1   
   103   98  100 1   
   104   98  104 1   
   105   98  105 1   
   106   99  106 1   
   107   99  107 1   
   108   99  108 1   
   109  100  109 1   
   110  100  110 1   
   111  100  111 1   
   112  112  113 1   
   113  112  119 1   
   114  113  114 1   
   115  113  116 1   
   116  113  120 1   
   117  114  115 2   
   118  114  126 1   
   119  116  117 1   
   120  116  118 1   
   121  116  121 1   
   122  117  123 1   
   123  117  124 1   
   124  117  125 1   
   125  118  122 1   
   126  126  127 1   
   127  126  133 1   
   128  127  128 1   
   129  127  130 1   
   130  127  134 1   
   131  128  129 2   
   132  128  140 1   
   133  130  131 1   
   134  130  132 1   
   135  130  135 1   
   136  131  137 1   
   137  131  138 1   
   138  131  139 1   
   139  132  136 1   
   140  140  141 1   
   141  140  149 1   
   142  141  142 1   
   143  141  144 1   
   144  141  150 1   
   145  142  143 2   
   146  142  162 1   
   147  144  145 1   
   148  144  151 1   
   149  144  152 1   
   150  145  146 1   
   151  145  153 1   
   152  145  154 1   
   153  146  147 1   
   154  146  155 1   
   155  146  156 1   
   156  147  148 1   
   157  147  157 1   
   158  147  158 1   
   159  148  159 1   
   160  148  160 1   
   161  148  161 1   
   162  162  163 1   
   163  162  171 1   
   164  163  164 1   
   165  163  166 1   
   166  163  172 1   
   167  164  165 2   
   168  164  177 1   
   169  166  167 1   
   170  166  173 1   
   171  166  174 1   
   172  167  168 1   
   173  167  175 1   
   174  167  176 1   
   175  168  169 1   
   176  168  170 1   
   177  177  178 1   
   178  177  182 1   
   179  178  179 1   
   180  178  180 1   
   181  178  181 1   
   182  184  185 1   
   183  184  186 1   
   184  187  188 1   
   185  187  189 1   
   186  190  191 1   
   187  190  192 1   
@<TRIPOS>SUBSTRUCTURE
     1 MOL         1 TEMP              0 ****  ****    0 ROOT
