@<TRIPOS>MOLECULE
MOL
  192   187     1     0     0
SMALL
resp


@<TRIPOS>ATOM
      1 C1         -3.8170    6.5530    3.4100 c3        1 MOL     -0.359983
      2 C2         -3.4670    5.1560    2.9710 c         1 MOL      0.623427
      3 O1         -2.5440    4.5120    3.5920 o         1 MOL     -0.601799
      4 H1         -3.6660    6.6440    4.4860 hc        1 MOL      0.094853
      5 H2         -3.1770    7.2690    2.8930 hc        1 MOL      0.094853
      6 H3         -4.8600    6.7600    3.1720 hc        1 MOL      0.094853
      7 N1         -3.9520    4.6810    1.8890 n         1 MOL     -0.422441
      8 C3         -3.8420    3.3340    1.3780 c3        1 MOL      0.098277
      9 C4         -2.6590    3.1140    0.3790 c         1 MOL      0.721919
     10 O2         -2.8100    2.3790   -0.5520 o         1 MOL     -0.632703
     11 C5         -5.2760    2.9150    0.8500 c3        1 MOL      0.000665
     12 C6         -5.8270    3.7010   -0.3290 c         1 MOL      0.665282
     13 O3         -5.8110    4.9400   -0.2800 o         1 MOL     -0.717783
     14 O4         -6.2590    3.0710   -1.3490 o         1 MOL     -0.717783
     15 H4         -4.6710    5.2840    1.5010 hn        1 MOL      0.253443
     16 H5         -3.7090    2.6970    2.2570 h1        1 MOL     -0.001742
     17 H6         -5.9910    3.1990    1.6340 hc        1 MOL     -0.010022
     18 H7         -5.5030    1.8600    0.6780 hc        1 MOL     -0.010022
     19 N2         -1.5810    3.8440    0.6100 n         1 MOL     -0.682573
     20 C7         -0.3760    3.9730   -0.1850 c3        1 MOL      0.572928
     21 C8          0.8880    4.1600    0.6670 c         1 MOL      0.428559
     22 O5          0.8310    5.0670    1.4660 o         1 MOL     -0.525831
     23 C9         -0.4250    5.1680   -1.1560 c3        1 MOL     -0.347107
     24 C10        -1.1820    4.7400   -2.4040 c3        1 MOL      0.022818
     25 C11        -1.2250    5.8430   -3.4930 c3        1 MOL      0.036076
     26 C12        -2.1430    5.3730   -4.6790 c3        1 MOL     -0.017697
     27 N3         -1.9850    6.1390   -5.9190 n4        1 MOL     -0.365185
     28 H8         -1.7960    4.6180    1.2270 hn        1 MOL      0.294862
     29 H9         -0.1680    3.0460   -0.7130 h1        1 MOL     -0.045911
     30 H10         0.6220    5.2820   -1.4290 hc        1 MOL      0.091196
     31 H11        -0.9410    5.9770   -0.6490 hc        1 MOL      0.091196
     32 H12        -2.2110    4.5360   -2.0740 hc        1 MOL      0.024711
     33 H13        -0.7260    3.8190   -2.7750 hc        1 MOL      0.024711
     34 H14        -0.2390    6.0560   -3.9130 hc        1 MOL      0.016045
     35 H15        -1.5700    6.7390   -2.9710 hc        1 MOL      0.016045
     36 H16        -3.1500    5.4160   -4.2750 hx        1 MOL      0.099589
     37 H17        -1.8760    4.3250   -4.8430 hx        1 MOL      0.099589
     38 H18        -1.0080    6.0620   -6.1850 hn        1 MOL      0.294307
     39 H19        -2.5770    5.8000   -6.6590 hn        1 MOL      0.294307
     40 H20        -2.2820    7.0830   -5.7200 hn        1 MOL      0.294307
     41 N4          1.9190    3.2800    0.7240 n         1 MOL     -0.492379
     42 C13         2.4270    2.2070   -0.1510 c3        1 MOL      0.265279
     43 C14         2.6140    2.5090   -1.6750 c         1 MOL      0.256089
     44 O6          1.5590    2.6530   -2.3160 o         1 MOL     -0.482388
     45 C15         1.6650    0.8630   -0.0030 c3        1 MOL      0.017705
     46 C16         1.3330    0.5550    1.4270 c         1 MOL      0.655545
     47 O7          2.3030    0.4910    2.2720 o         1 MOL     -0.780906
     48 O8          0.1360    0.5060    1.8520 o         1 MOL     -0.780906
     49 H21         2.5080    3.4220    1.5380 hn        1 MOL      0.307163
     50 H22         3.4290    2.0510    0.2620 h1        1 MOL     -0.002408
     51 H23         2.3570    0.1000   -0.3610 hc        1 MOL      0.034695
     52 H24         0.7820    0.6800   -0.6080 hc        1 MOL      0.034695
     53 N5          3.8520    2.6340   -2.2050 n         1 MOL     -0.211476
     54 C17         5.1130    2.5070   -1.5870 c3        1 MOL     -0.094676
     55 C18         6.3450    2.6750   -2.6010 c         1 MOL      0.618934
     56 O9          6.1240    2.7810   -3.7900 o         1 MOL     -0.551477
     57 H25         3.7350    2.7310   -3.2050 hn        1 MOL      0.228202
     58 H26         5.1760    1.5460   -1.0760 h1        1 MOL      0.055025
     59 H27         5.1020    3.3760   -0.9290 h1        1 MOL      0.055025
     60 N6          7.6190    2.7670   -2.1360 n         1 MOL     -0.533938
     61 C19         8.0770    2.6360   -0.6890 c3        1 MOL      0.089370
     62 C20         8.2010    1.1870   -0.3290 c         1 MOL      0.473966
     63 O10         8.7700    0.4680   -1.1170 o         1 MOL     -0.476475
     64 C21         9.4850    3.2990   -0.5630 c3        1 MOL     -0.171948
     65 C22        10.0310    3.2640    0.8450 c         1 MOL      0.683810
     66 O11         9.9330    4.2540    1.5870 o         1 MOL     -0.666858
     67 O12        10.6440    2.2500    1.2220 o         1 MOL     -0.666858
     68 H28         8.3610    2.7100   -2.8170 hn        1 MOL      0.325378
     69 H29         7.4160    3.1200    0.0330 h1        1 MOL      0.020607
     70 H30         9.3130    4.3320   -0.8920 hc        1 MOL      0.054731
     71 H31        10.1750    2.7950   -1.2340 hc        1 MOL      0.054731
     72 N7          7.8540    0.8800    0.9570 n         1 MOL     -0.348930
     73 C23         8.0800   -0.3610    1.6850 c3        1 MOL      0.116069
     74 C24         7.8070   -1.6900    0.9570 c         1 MOL      0.498093
     75 O13         8.7740   -2.3100    0.4890 o         1 MOL     -0.487329
     76 H32         7.3490    1.5510    1.5240 hn        1 MOL      0.248697
     77 H33         7.4940   -0.4200    2.6090 h1        1 MOL      0.026339
     78 H34         9.1130   -0.3760    2.0240 h1        1 MOL      0.026339
     79 N8          6.5330   -2.1020    1.0390 n         1 MOL     -0.542644
     80 C25         5.8640   -3.1420    0.2600 c3        1 MOL     -0.025277
     81 C26         4.4340   -2.7490   -0.0210 c         1 MOL      0.857018
     82 O14         3.8020   -1.9460    0.6870 o         1 MOL     -0.731417
     83 C27         5.9670   -4.5230    0.9140 c3        1 MOL      0.404683
     84 C28         7.3060   -5.0070    1.2880 c3        1 MOL     -0.239547
     85 O15         5.3930   -5.4540    0.0400 oh        1 MOL     -0.669966
     86 H35         5.9400   -1.4540    1.5320 hn        1 MOL      0.306540
     87 H36         6.4000   -3.3300   -0.6620 h1        1 MOL      0.128143
     88 H37         5.3310   -4.4650    1.8060 h1        1 MOL     -0.086871
     89 H38         5.1550   -6.2150    0.5840 ho        1 MOL      0.419662
     90 H39         8.0130   -5.0090    0.4670 hc        1 MOL      0.072006
     91 H40         7.7480   -4.4740    2.1370 hc        1 MOL      0.072006
     92 H41         7.2110   -6.0390    1.6300 hc        1 MOL      0.072006
     93 N9          3.8850   -3.2610   -1.1860 n         1 MOL     -0.849045
     94 C29         2.4970   -2.9400   -1.6500 c3        1 MOL      0.021728
     95 C30         1.6950   -4.2260   -1.9600 c         1 MOL      0.687286
     96 O16         2.0120   -5.0120   -2.9080 o         1 MOL     -0.552020
     97 C31         2.5780   -2.1810   -2.9830 c3        1 MOL      0.159103
     98 C32         3.7350   -1.1880   -3.1150 c3        1 MOL      0.075908
     99 C33         1.2270   -1.4850   -3.1370 c3        1 MOL     -0.169775
    100 C34         3.7170   -0.2300   -4.3030 c3        1 MOL     -0.147295
    101 H42         4.4020   -3.9700   -1.6960 hn        1 MOL      0.402966
    102 H43         1.9890   -2.3930   -0.8610 h1        1 MOL      0.065004
    103 H44         2.6660   -2.8540   -3.8380 hc        1 MOL     -0.001490
    104 H45         4.7050   -1.6930   -3.1700 hc        1 MOL      0.012938
    105 H46         3.8090   -0.5470   -2.2300 hc        1 MOL      0.012938
    106 H47         1.1870   -0.9920   -4.1160 hc        1 MOL      0.019479
    107 H48         0.5240   -2.3070   -3.3020 hc        1 MOL      0.019479
    108 H49         1.0940   -0.7590   -2.3360 hc        1 MOL      0.019479
    109 H50         3.0520    0.6280   -4.2190 hc        1 MOL      0.032958
    110 H51         4.7210    0.1570   -4.4380 hc        1 MOL      0.032958
    111 H52         3.4420   -0.7330   -5.2310 hc        1 MOL      0.032958
    112 N10         0.5990   -4.4430   -1.1760 n         1 MOL     -0.510791
    113 C35        -0.4500   -5.4180   -1.4900 c3        1 MOL     -0.356704
    114 C36        -1.7050   -4.6460   -1.9010 c         1 MOL      0.617644
    115 O17        -2.6320   -5.3260   -2.3480 o         1 MOL     -0.558462
    116 C37        -0.6180   -6.3420   -0.2190 c3        1 MOL      0.447927
    117 C38        -1.5450   -5.8220    0.8270 c3        1 MOL     -0.155216
    118 O18         0.5920   -6.6340    0.3990 oh        1 MOL     -0.638411
    119 H53         0.4460   -3.7890   -0.4180 hn        1 MOL      0.345096
    120 H54        -0.1710   -6.1340   -2.2650 h1        1 MOL      0.174501
    121 H55        -0.9910   -7.3250   -0.5100 h1        1 MOL     -0.012801
    122 H56         1.1310   -6.9960   -0.3020 ho        1 MOL      0.408160
    123 H57        -2.0110   -6.6630    1.3370 hc        1 MOL      0.046675
    124 H58        -1.0120   -5.2400    1.5780 hc        1 MOL      0.046675
    125 H59        -2.3950   -5.2150    0.4970 hc        1 MOL      0.046675
    126 N11        -1.8450   -3.3510   -1.7140 n         1 MOL     -0.235729
    127 C39        -3.0550   -2.5800   -2.0580 c3        1 MOL     -0.006071
    128 C40        -4.3110   -2.8260   -1.1680 c         1 MOL      0.513344
    129 O19        -4.5780   -3.9080   -0.6330 o         1 MOL     -0.475021
    130 C41        -3.3980   -2.5240   -3.5710 c3        1 MOL      0.250206
    131 C42        -2.1770   -2.3370   -4.4920 c3        1 MOL     -0.404784
    132 O20        -4.2100   -1.4090   -3.8260 oh        1 MOL     -0.605746
    133 H60        -1.1950   -2.7950   -1.1720 hn        1 MOL      0.203472
    134 H61        -2.8350   -1.5310   -1.8540 h1        1 MOL      0.110458
    135 H62        -3.9190   -3.4430   -3.8440 h1        1 MOL      0.019397
    136 H63        -4.4140   -1.4970   -4.7610 ho        1 MOL      0.382895
    137 H64        -2.4200   -2.0820   -5.5230 hc        1 MOL      0.115036
    138 H65        -1.6470   -1.4700   -4.0920 hc        1 MOL      0.115036
    139 H66        -1.5510   -3.2260   -4.4210 hc        1 MOL      0.115036
    140 N12        -5.2020   -1.8120   -1.0740 n         1 MOL     -0.444230
    141 C43        -6.5500   -1.8540   -0.4660 c3        1 MOL     -0.073926
    142 C44        -6.5260   -1.7120    1.0260 c         1 MOL      0.458546
    143 O21        -7.5130   -2.0310    1.6440 o         1 MOL     -0.554672
    144 C45        -7.5860   -0.8800   -1.1050 c3        1 MOL     -0.124711
    145 C46        -7.5110   -0.9070   -2.6330 c3        1 MOL     -0.190332
    146 C47        -8.7740   -0.2730   -3.2520 c3        1 MOL      0.086004
    147 C48        -8.8670   -0.3970   -4.7820 c3        1 MOL     -0.230329
    148 N13        -9.4380   -1.7530   -5.1580 n4        1 MOL     -0.289265
    149 H67        -5.0540   -1.0570   -1.7290 hn        1 MOL      0.283511
    150 H68        -6.9420   -2.8410   -0.7200 h1        1 MOL      0.107898
    151 H69        -7.3900    0.1610   -0.8100 hc        1 MOL      0.093249
    152 H70        -8.6300   -1.0680   -0.8520 hc        1 MOL      0.093249
    153 H71        -7.4100   -1.9350   -2.9730 hc        1 MOL      0.079108
    154 H72        -6.6380   -0.3550   -2.9610 hc        1 MOL      0.079108
    155 H73        -8.7080    0.7520   -2.8850 hc        1 MOL      0.053329
    156 H74        -9.6970   -0.5700   -2.7530 hc        1 MOL      0.053329
    157 H75        -7.8480   -0.2970   -5.1570 hx        1 MOL      0.166786
    158 H76        -9.4620    0.4710   -5.0480 hx        1 MOL      0.166786
    159 H77       -10.3590   -2.0140   -4.8310 hn        1 MOL      0.312780
    160 H78        -9.5180   -1.8660   -6.1630 hn        1 MOL      0.312780
    161 H79        -8.8440   -2.5440   -4.9380 hn        1 MOL      0.312780
    162 N14        -5.4170   -1.3380    1.6690 n         1 MOL     -0.077082
    163 C49        -5.3900   -1.2400    3.1240 c3        1 MOL     -0.299419
    164 C50        -6.3230   -0.1280    3.7120 c         1 MOL      0.582850
    165 O22        -6.0450    1.0250    3.5660 o         1 MOL     -0.490954
    166 C51        -3.9090   -0.9440    3.4910 c3        1 MOL     -0.267376
    167 C52        -3.0220   -2.1660    3.4500 c3        1 MOL      0.547273
    168 C53        -1.5960   -1.9190    3.9780 c         1 MOL      0.552482
    169 O23        -1.4090   -1.1860    4.9490 o         1 MOL     -0.755544
    170 O24        -0.6850   -2.5650    3.4630 o         1 MOL     -0.755544
    171 H80        -4.6230   -1.1310    1.0730 hn        1 MOL      0.192955
    172 H81        -5.6190   -2.1920    3.5890 h1        1 MOL      0.087989
    173 H82        -3.9290   -0.5910    4.5200 hc        1 MOL      0.081717
    174 H83        -3.5930   -0.1560    2.8010 hc        1 MOL      0.081717
    175 H84        -2.9140   -2.5900    2.4540 hc        1 MOL     -0.127600
    176 H85        -3.4180   -2.9800    4.0470 hc        1 MOL     -0.127600
    177 N15        -7.5420   -0.4490    4.1230 n         1 MOL     -0.265108
    178 C54        -8.4980    0.4160    4.7500 c3        1 MOL     -0.139802
    179 H86        -8.2260    0.5600    5.7950 h1        1 MOL      0.073723
    180 H87        -8.5060    1.3800    4.2410 h1        1 MOL      0.073723
    181 H88        -9.4890   -0.0340    4.6930 h1        1 MOL      0.073723
    182 H89        -7.8310   -1.4240    4.0880 hn        1 MOL      0.251015
    183 Ca1         1.1360   -0.6640    4.3340 Ca        1 MOL      1.769383
    184 O25         2.1740   -2.4400    2.6610 oh        1 MOL     -0.898749
    185 H90         2.8350   -2.1560    2.0320 ho        1 MOL      0.447297
    186 H91         2.0950   -3.3850    2.5110 ho        1 MOL      0.447297
    187 O26         0.4750   -0.5580    6.9670 oh        1 MOL     -0.898749
    188 H92         0.8010   -1.0940    7.6900 ho        1 MOL      0.447297
    189 H93        -0.4070   -0.2920    7.2400 ho        1 MOL      0.447297
    190 O27        -0.3410    1.7980    4.1980 oh        1 MOL     -0.898749
    191 H94        -0.2090    1.7190    3.2490 ho        1 MOL      0.447297
    192 H95        -1.1980    2.1880    4.2950 ho        1 MOL      0.447297
@<TRIPOS>BOND
     1    1    2 1   
     2    1    4 1   
     3    1    5 1   
     4    1    6 1   
     5    2    3 2   
     6    2    7 1   
     7    7    8 1   
     8    7   15 1   
     9    8    9 1   
    10    8   11 1   
    11    8   16 1   
    12    9   10 2   
    13    9   19 1   
    14   11   12 1   
    15   11   17 1   
    16   11   18 1   
    17   12   13 1   
    18   12   14 1   
    19   19   20 1   
    20   19   28 1   
    21   20   21 1   
    22   20   23 1   
    23   20   29 1   
    24   21   22 2   
    25   21   41 1   
    26   23   24 1   
    27   23   30 1   
    28   23   31 1   
    29   24   25 1   
    30   24   32 1   
    31   24   33 1   
    32   25   26 1   
    33   25   34 1   
    34   25   35 1   
    35   26   27 1   
    36   26   36 1   
    37   26   37 1   
    38   27   38 1   
    39   27   39 1   
    40   27   40 1   
    41   41   42 1   
    42   41   49 1   
    43   42   43 1   
    44   42   45 1   
    45   42   50 1   
    46   43   44 2   
    47   43   53 1   
    48   45   46 1   
    49   45   51 1   
    50   45   52 1   
    51   46   47 1   
    52   46   48 1   
    53   53   54 1   
    54   53   57 1   
    55   54   55 1   
    56   54   58 1   
    57   54   59 1   
    58   55   56 2   
    59   55   60 1   
    60   60   61 1   
    61   60   68 1   
    62   61   62 1   
    63   61   64 1   
    64   61   69 1   
    65   62   63 2   
    66   62   72 1   
    67   64   65 1   
    68   64   70 1   
    69   64   71 1   
    70   65   66 1   
    71   65   67 1   
    72   72   73 1   
    73   72   76 1   
    74   73   74 1   
    75   73   77 1   
    76   73   78 1   
    77   74   75 2   
    78   74   79 1   
    79   79   80 1   
    80   79   86 1   
    81   80   81 1   
    82   80   83 1   
    83   80   87 1   
    84   81   82 2   
    85   81   93 1   
    86   83   84 1   
    87   83   85 1   
    88   83   88 1   
    89   84   90 1   
    90   84   91 1   
    91   84   92 1   
    92   85   89 1   
    93   93   94 1   
    94   93  101 1   
    95   94   95 1   
    96   94   97 1   
    97   94  102 1   
    98   95   96 2   
    99   95  112 1   
   100   97   98 1   
   101   97   99 1   
   102   97  103 1   
   103   98  100 1   
   104   98  104 1   
   105   98  105 1   
   106   99  106 1   
   107   99  107 1   
   108   99  108 1   
   109  100  109 1   
   110  100  110 1   
   111  100  111 1   
   112  112  113 1   
   113  112  119 1   
   114  113  114 1   
   115  113  116 1   
   116  113  120 1   
   117  114  115 2   
   118  114  126 1   
   119  116  117 1   
   120  116  118 1   
   121  116  121 1   
   122  117  123 1   
   123  117  124 1   
   124  117  125 1   
   125  118  122 1   
   126  126  127 1   
   127  126  133 1   
   128  127  128 1   
   129  127  130 1   
   130  127  134 1   
   131  128  129 2   
   132  128  140 1   
   133  130  131 1   
   134  130  132 1   
   135  130  135 1   
   136  131  137 1   
   137  131  138 1   
   138  131  139 1   
   139  132  136 1   
   140  140  141 1   
   141  140  149 1   
   142  141  142 1   
   143  141  144 1   
   144  141  150 1   
   145  142  143 2   
   146  142  162 1   
   147  144  145 1   
   148  144  151 1   
   149  144  152 1   
   150  145  146 1   
   151  145  153 1   
   152  145  154 1   
   153  146  147 1   
   154  146  155 1   
   155  146  156 1   
   156  147  148 1   
   157  147  157 1   
   158  147  158 1   
   159  148  159 1   
   160  148  160 1   
   161  148  161 1   
   162  162  163 1   
   163  162  171 1   
   164  163  164 1   
   165  163  166 1   
   166  163  172 1   
   167  164  165 2   
   168  164  177 1   
   169  166  167 1   
   170  166  173 1   
   171  166  174 1   
   172  167  168 1   
   173  167  175 1   
   174  167  176 1   
   175  168  169 1   
   176  168  170 1   
   177  177  178 1   
   178  177  182 1   
   179  178  179 1   
   180  178  180 1   
   181  178  181 1   
   182  184  185 1   
   183  184  186 1   
   184  187  188 1   
   185  187  189 1   
   186  190  191 1   
   187  190  192 1   
@<TRIPOS>SUBSTRUCTURE
     1 MOL         1 TEMP              0 ****  ****    0 ROOT
