@<TRIPOS>MOLECULE
MOL
  192   187     1     0     0
SMALL
resp


@<TRIPOS>ATOM
      1 C1        -10.0350   -4.9640   -3.7510 c3        1 MOL     -0.493751
      2 C2         -9.9930   -3.7250   -2.8990 c         1 MOL      0.783419
      3 O1         -9.7320   -2.6660   -3.4470 o         1 MOL     -0.611887
      4 H1        -10.6310   -5.7280   -3.2520 hc        1 MOL      0.123596
      5 H2        -10.4830   -4.7280   -4.7170 hc        1 MOL      0.123596
      6 H3         -9.0210   -5.3370   -3.9030 hc        1 MOL      0.123596
      7 N1        -10.2370   -3.8690   -1.6130 n         1 MOL     -0.442713
      8 C3        -10.3170   -2.7600   -0.6620 c3        1 MOL     -0.140078
      9 C4         -9.0200   -2.0580   -0.4670 c         1 MOL      0.554837
     10 O2         -7.9510   -2.6510   -0.3230 o         1 MOL     -0.650236
     11 C5        -10.9890   -3.1640    0.6500 c3        1 MOL      0.041000
     12 C6        -10.1740   -4.2720    1.3620 c         1 MOL      0.752898
     13 O3        -10.4490   -4.5110    2.5420 o         1 MOL     -0.708690
     14 O4         -9.2670   -4.9280    0.8570 o         1 MOL     -0.708690
     15 H4        -10.2990   -4.7850   -1.2000 hn        1 MOL      0.176656
     16 H5        -10.9510   -2.0330   -1.1690 h1        1 MOL      0.049864
     17 H6        -12.0330   -3.5020    0.5930 hc        1 MOL      0.021878
     18 H7        -11.1380   -2.3090    1.3020 hc        1 MOL      0.021878
     19 N2         -9.0720   -0.7240   -0.6230 n         1 MOL     -0.276864
     20 C7         -7.9900    0.1730   -0.8660 c3        1 MOL     -0.003790
     21 C8         -7.2670    0.3920    0.4900 c         1 MOL      0.486774
     22 O5         -7.6970    1.2600    1.2250 o         1 MOL     -0.507727
     23 C9         -8.4980    1.4310   -1.6450 c3        1 MOL     -0.196838
     24 C10        -7.4240    2.4080   -2.0330 c3        1 MOL      0.066106
     25 C11        -7.8210    3.4440   -3.0680 c3        1 MOL      0.002732
     26 C12        -8.8020    4.5130   -2.4790 c3        1 MOL      0.029785
     27 N3         -9.4270    5.3150   -3.5170 n4        1 MOL     -0.383725
     28 H8         -9.9950   -0.3630   -0.4280 hn        1 MOL      0.253378
     29 H9         -7.2160   -0.2200   -1.5160 h1        1 MOL      0.100833
     30 H10        -9.1690    1.9130   -0.9240 hc        1 MOL      0.060217
     31 H11        -9.0310    1.1080   -2.5330 hc        1 MOL      0.060217
     32 H12        -6.6580    1.8780   -2.5900 hc        1 MOL      0.036951
     33 H13        -7.1010    3.0410   -1.1950 hc        1 MOL      0.036951
     34 H14        -8.2340    2.9430   -3.9330 hc        1 MOL      0.016046
     35 H15        -6.9210    4.0050   -3.3390 hc        1 MOL      0.016046
     36 H16        -8.1970    5.1440   -1.8310 hx        1 MOL      0.088909
     37 H17        -9.5470    3.9310   -1.9400 hx        1 MOL      0.088909
     38 H18        -9.9660    6.0900   -3.1390 hn        1 MOL      0.305287
     39 H19        -8.6280    5.7780   -3.9130 hn        1 MOL      0.305287
     40 H20        -9.9450    4.7330   -4.1580 hn        1 MOL      0.305287
     41 N4         -6.1690   -0.3230    0.7340 n         1 MOL     -0.379844
     42 C13        -5.2350   -0.1650    1.8450 c3        1 MOL      0.185701
     43 C14        -3.7870   -0.4860    1.4280 c         1 MOL      0.406205
     44 O6         -3.5580   -1.3000    0.5950 o         1 MOL     -0.573819
     45 C15        -5.5240   -1.1170    3.0910 c3        1 MOL     -0.199427
     46 C16        -5.8800   -2.5830    2.5710 c         1 MOL      0.733213
     47 O7         -5.0820   -3.5430    2.4870 o         1 MOL     -0.737056
     48 O8         -7.0740   -2.8860    2.2850 o         1 MOL     -0.737056
     49 H21        -6.0250   -1.1920    0.2430 hn        1 MOL      0.278000
     50 H22        -5.2760    0.8560    2.2300 h1        1 MOL      0.052225
     51 H23        -6.3290   -0.7620    3.7340 hc        1 MOL      0.063910
     52 H24        -4.6200   -1.2130    3.6890 hc        1 MOL      0.063910
     53 N5         -2.7940    0.2430    1.8920 n         1 MOL     -0.167025
     54 C17        -2.8070    1.3220    2.9080 c3        1 MOL     -0.258430
     55 C18        -3.2950    2.6680    2.3770 c         1 MOL      0.457420
     56 O9         -3.8700    2.8730    1.2950 o         1 MOL     -0.461492
     57 H25        -1.8820   -0.0390    1.5430 hn        1 MOL      0.232398
     58 H26        -1.7500    1.4230    3.1570 h1        1 MOL      0.122825
     59 H27        -3.2930    0.9790    3.8210 h1        1 MOL      0.122825
     60 N6         -3.0840    3.7010    3.2490 n         1 MOL     -0.324173
     61 C19        -3.4460    5.1540    2.9820 c3        1 MOL     -0.037017
     62 C20        -2.9960    5.5830    1.5610 c         1 MOL      0.382547
     63 O10        -3.7220    6.3360    0.8810 o         1 MOL     -0.507604
     64 C21        -2.7590    6.0640    4.0260 c3        1 MOL     -0.299513
     65 C22        -2.7490    7.5250    3.5800 c         1 MOL      0.790491
     66 O11        -3.8170    8.1720    3.6420 o         1 MOL     -0.683143
     67 O12        -1.6520    7.9870    3.3180 o         1 MOL     -0.683143
     68 H28        -2.6840    3.4930    4.1470 hn        1 MOL      0.256914
     69 H29        -4.5340    5.2490    3.0920 h1        1 MOL      0.128177
     70 H30        -1.7560    5.7370    4.3000 hc        1 MOL      0.064007
     71 H31        -3.3820    5.9820    4.9130 hc        1 MOL      0.064007
     72 N7         -1.9090    5.0770    1.0630 n         1 MOL     -0.201813
     73 C23        -1.3360    5.4370   -0.2310 c3        1 MOL      0.167613
     74 C24        -1.0770    4.2850   -1.1620 c         1 MOL      0.393677
     75 O13        -0.2390    4.4360   -2.0550 o         1 MOL     -0.554620
     76 H32        -1.4230    4.3140    1.5280 hn        1 MOL      0.168183
     77 H33        -0.3770    5.9370   -0.0690 h1        1 MOL      0.029368
     78 H34        -1.9450    6.1800   -0.7370 h1        1 MOL      0.029368
     79 N8         -1.7250    3.1880   -0.8730 n         1 MOL     -0.331462
     80 C25        -1.5430    1.8420   -1.5550 c3        1 MOL      0.212221
     81 C26        -0.6150    0.9560   -0.7570 c         1 MOL      0.303596
     82 O14        -0.3940    1.0990    0.4370 o         1 MOL     -0.488446
     83 C27        -2.8980    1.2200   -1.8140 c3        1 MOL      0.560305
     84 C28        -3.6690    2.1800   -2.7680 c3        1 MOL     -0.361535
     85 O15        -2.8600   -0.0660   -2.3800 oh        1 MOL     -0.632895
     86 H35        -2.5610    3.3180   -0.3210 hn        1 MOL      0.213724
     87 H36        -1.0030    2.0520   -2.4810 h1        1 MOL      0.007896
     88 H37        -3.4220    1.1040   -0.8610 h1        1 MOL     -0.202437
     89 H38        -3.2300   -0.6380   -1.7020 ho        1 MOL      0.338919
     90 H39        -4.2100    1.6220   -3.5310 hc        1 MOL      0.081165
     91 H40        -4.3660    2.8110   -2.2240 hc        1 MOL      0.081165
     92 H41        -3.0080    2.8660   -3.3020 hc        1 MOL      0.081165
     93 N9          0.0410    0.0030   -1.3670 n         1 MOL     -0.034637
     94 C29         0.8640   -1.0410   -0.6320 c3        1 MOL     -0.426331
     95 C30         2.3010   -0.5990   -0.2740 c         1 MOL      0.597840
     96 O16         3.0280   -1.3800    0.2930 o         1 MOL     -0.565228
     97 C31         0.8910   -2.3550   -1.3190 c3        1 MOL      0.319068
     98 C32         1.4480   -2.2120   -2.7640 c3        1 MOL     -0.020174
     99 C33        -0.5180   -3.0470   -1.2980 c3        1 MOL     -0.181853
    100 C34         1.8970   -3.5960   -3.3180 c3        1 MOL     -0.229665
    101 H42        -0.1170   -0.0750   -2.3660 hn        1 MOL      0.161380
    102 H43         0.3530   -1.2000    0.3210 h1        1 MOL      0.178064
    103 H44         1.4520   -3.0890   -0.7340 hc        1 MOL      0.020003
    104 H45         2.2900   -1.5110   -2.7970 hc        1 MOL      0.018597
    105 H46         0.6400   -1.7780   -3.3380 hc        1 MOL      0.018597
    106 H47        -0.5200   -3.9290   -1.9390 hc        1 MOL      0.021177
    107 H48        -0.7220   -3.4150   -0.2850 hc        1 MOL      0.021177
    108 H49        -1.2940   -2.3810   -1.6750 hc        1 MOL      0.021177
    109 H50         1.0860   -4.3250   -3.3030 hc        1 MOL      0.060774
    110 H51         2.1420   -3.5900   -4.3780 hc        1 MOL      0.060774
    111 H52         2.7000   -4.0740   -2.7690 hc        1 MOL      0.060774
    112 N10         2.7530    0.5390   -0.7360 n         1 MOL     -0.231896
    113 C35         4.0390    1.1790   -0.3710 c3        1 MOL     -0.099972
    114 C36         4.8350    1.6410   -1.5930 c         1 MOL      0.627674
    115 O17         4.3340    1.8540   -2.6800 o         1 MOL     -0.507269
    116 C37         3.7530    2.4430    0.4720 c3        1 MOL      0.294327
    117 C38         2.7870    3.4510   -0.1150 c3        1 MOL     -0.242314
    118 O18         3.0940    2.0460    1.6510 oh        1 MOL     -0.586334
    119 H53         2.0790    0.9900   -1.3360 hn        1 MOL      0.118292
    120 H54         4.6650    0.4170    0.1000 h1        1 MOL      0.113830
    121 H55         4.7640    2.7960    0.6540 h1        1 MOL     -0.023699
    122 H56         3.5680    2.3400    2.4340 ho        1 MOL      0.390600
    123 H57         3.2420    4.1470   -0.8350 hc        1 MOL      0.077769
    124 H58         1.9240    2.9630   -0.5540 hc        1 MOL      0.077769
    125 H59         2.4260    4.1590    0.6360 hc        1 MOL      0.077769
    126 N11         6.1660    1.7500   -1.3620 n         1 MOL     -0.603130
    127 C39         7.1330    2.3050   -2.3020 c3        1 MOL     -0.012719
    128 C40         8.5120    1.5750   -2.3420 c         1 MOL      0.674303
    129 O19         9.0700    1.4300   -3.3610 o         1 MOL     -0.565708
    130 C41         7.4150    3.7890   -1.9930 c3        1 MOL      0.387882
    131 C42         8.5690    4.5250   -2.6560 c3        1 MOL     -0.512548
    132 O20         7.5870    4.0580   -0.6280 oh        1 MOL     -0.640903
    133 H60         6.4510    1.4600   -0.4380 hn        1 MOL      0.301508
    134 H61         6.6380    2.3110   -3.2720 h1        1 MOL      0.103001
    135 H62         6.4870    4.2970   -2.2810 h1        1 MOL      0.011883
    136 H63         6.8450    4.6380   -0.4350 ho        1 MOL      0.394021
    137 H64         8.4040    5.5900   -2.4890 hc        1 MOL      0.137394
    138 H65         9.5610    4.2760   -2.2920 hc        1 MOL      0.137394
    139 H66         8.4750    4.2650   -3.7090 hc        1 MOL      0.137394
    140 N12         8.8950    0.9140   -1.2810 n         1 MOL     -0.422224
    141 C43         9.9980   -0.0290   -1.1820 c3        1 MOL     -0.029174
    142 C44         9.9840   -1.0570   -0.0310 c         1 MOL      0.483963
    143 O21         9.5770   -0.6920    1.0930 o         1 MOL     -0.534815
    144 C45        11.3550    0.6610   -1.1970 c3        1 MOL     -0.355881
    145 C46        11.7230    1.2990    0.1550 c3        1 MOL      0.349973
    146 C47        12.8640    2.3010    0.1040 c3        1 MOL     -0.130637
    147 C48        12.8690    3.1220    1.4400 c3        1 MOL     -0.164551
    148 N13        13.0470    2.3400    2.6370 n4        1 MOL     -0.204815
    149 H67         8.3730    1.1580   -0.4440 hn        1 MOL      0.256567
    150 H68        10.0340   -0.7150   -2.0290 h1        1 MOL      0.105211
    151 H69        11.3580    1.4470   -1.9560 hc        1 MOL      0.111145
    152 H70        12.0400   -0.1350   -1.5060 hc        1 MOL      0.111145
    153 H71        12.1080    0.4690    0.7470 hc        1 MOL     -0.023965
    154 H72        10.8450    1.8030    0.5730 hc        1 MOL     -0.023965
    155 H73        12.6900    2.9530   -0.7610 hc        1 MOL      0.060656
    156 H74        13.8580    1.8690    0.0420 hc        1 MOL      0.060656
    157 H75        11.9040    3.6370    1.4720 hx        1 MOL      0.129603
    158 H76        13.7340    3.7940    1.4980 hx        1 MOL      0.129603
    159 H77        13.2710    2.9180    3.4300 hn        1 MOL      0.259617
    160 H78        12.2000    1.8370    2.8730 hn        1 MOL      0.259617
    161 H79        13.8330    1.7310    2.4320 hn        1 MOL      0.259617
    162 N14        10.5090   -2.2700   -0.2810 n         1 MOL     -0.248355
    163 C49        10.9630   -3.1580    0.7720 c3        1 MOL      0.140105
    164 C50         9.8540   -3.7570    1.6260 c         1 MOL      0.413439
    165 O22         9.9070   -3.6000    2.8210 o         1 MOL     -0.543297
    166 C51        11.8620   -4.2510    0.2130 c3        1 MOL     -0.445271
    167 C52        12.4150   -5.2900    1.2380 c3        1 MOL      0.019782
    168 C53        13.3590   -6.1870    0.6630 c         1 MOL      0.724940
    169 O23        14.5810   -5.9500    0.7040 o         1 MOL     -0.693178
    170 O24        12.8520   -7.2210    0.2730 o         1 MOL     -0.693178
    171 H80        10.8840   -2.4150   -1.2070 hn        1 MOL      0.217895
    172 H81        11.6070   -2.5970    1.4570 h1        1 MOL      0.041671
    173 H82        12.6310   -3.6810   -0.3120 hc        1 MOL      0.114070
    174 H83        11.3830   -4.7850   -0.6050 hc        1 MOL      0.114070
    175 H84        11.5620   -5.7880    1.6880 hc        1 MOL      0.016881
    176 H85        12.8720   -4.6510    1.9880 hc        1 MOL      0.016881
    177 N15         8.8000   -4.4210    1.1320 n         1 MOL     -0.319197
    178 C54         8.3400   -4.5920   -0.2640 c3        1 MOL      0.079925
    179 H86         8.9040   -5.3960   -0.7360 h1        1 MOL      0.020413
    180 H87         7.2780   -4.8410   -0.2700 h1        1 MOL      0.020413
    181 H88         8.4990   -3.6650   -0.8160 h1        1 MOL      0.020413
    182 H89         8.1690   -4.6470    1.8790 hn        1 MOL      0.272996
    183 Ca1        -6.6440   -4.8670    0.8180 Ca        1 MOL      1.807911
    184 O25        -4.0640   -5.7860    0.8850 oh        1 MOL     -0.929866
    185 H90        -3.5910   -6.6140    0.8740 ho        1 MOL      0.450993
    186 H91        -3.3850   -5.1200    0.9310 ho        1 MOL      0.450993
    187 O26        -7.3560   -6.2570    3.2000 oh        1 MOL     -0.929866
    188 H92        -6.6600   -6.7370    3.6470 ho        1 MOL      0.450993
    189 H93        -8.0060   -6.0830    3.8760 ho        1 MOL      0.450993
    190 O27        -4.9570   -3.1360   -0.7420 oh        1 MOL     -0.929866
    191 H94        -4.2710   -2.4950   -0.5890 ho        1 MOL      0.450993
    192 H95        -4.7890   -3.4700   -1.6300 ho        1 MOL      0.450993
@<TRIPOS>BOND
     1    1    2 1   
     2    1    4 1   
     3    1    5 1   
     4    1    6 1   
     5    2    3 2   
     6    2    7 1   
     7    7    8 1   
     8    7   15 1   
     9    8    9 1   
    10    8   11 1   
    11    8   16 1   
    12    9   10 2   
    13    9   19 1   
    14   11   12 1   
    15   11   17 1   
    16   11   18 1   
    17   12   13 1   
    18   12   14 1   
    19   19   20 1   
    20   19   28 1   
    21   20   21 1   
    22   20   23 1   
    23   20   29 1   
    24   21   22 2   
    25   21   41 1   
    26   23   24 1   
    27   23   30 1   
    28   23   31 1   
    29   24   25 1   
    30   24   32 1   
    31   24   33 1   
    32   25   26 1   
    33   25   34 1   
    34   25   35 1   
    35   26   27 1   
    36   26   36 1   
    37   26   37 1   
    38   27   38 1   
    39   27   39 1   
    40   27   40 1   
    41   41   42 1   
    42   41   49 1   
    43   42   43 1   
    44   42   45 1   
    45   42   50 1   
    46   43   44 2   
    47   43   53 1   
    48   45   46 1   
    49   45   51 1   
    50   45   52 1   
    51   46   47 1   
    52   46   48 1   
    53   53   54 1   
    54   53   57 1   
    55   54   55 1   
    56   54   58 1   
    57   54   59 1   
    58   55   56 2   
    59   55   60 1   
    60   60   61 1   
    61   60   68 1   
    62   61   62 1   
    63   61   64 1   
    64   61   69 1   
    65   62   63 2   
    66   62   72 1   
    67   64   65 1   
    68   64   70 1   
    69   64   71 1   
    70   65   66 1   
    71   65   67 1   
    72   72   73 1   
    73   72   76 1   
    74   73   74 1   
    75   73   77 1   
    76   73   78 1   
    77   74   75 2   
    78   74   79 1   
    79   79   80 1   
    80   79   86 1   
    81   80   81 1   
    82   80   83 1   
    83   80   87 1   
    84   81   82 2   
    85   81   93 1   
    86   83   84 1   
    87   83   85 1   
    88   83   88 1   
    89   84   90 1   
    90   84   91 1   
    91   84   92 1   
    92   85   89 1   
    93   93   94 1   
    94   93  101 1   
    95   94   95 1   
    96   94   97 1   
    97   94  102 1   
    98   95   96 2   
    99   95  112 1   
   100   97   98 1   
   101   97   99 1   
   102   97  103 1   
   103   98  100 1   
   104   98  104 1   
   105   98  105 1   
   106   99  106 1   
   107   99  107 1   
   108   99  108 1   
   109  100  109 1   
   110  100  110 1   
   111  100  111 1   
   112  112  113 1   
   113  112  119 1   
   114  113  114 1   
   115  113  116 1   
   116  113  120 1   
   117  114  115 2   
   118  114  126 1   
   119  116  117 1   
   120  116  118 1   
   121  116  121 1   
   122  117  123 1   
   123  117  124 1   
   124  117  125 1   
   125  118  122 1   
   126  126  127 1   
   127  126  133 1   
   128  127  128 1   
   129  127  130 1   
   130  127  134 1   
   131  128  129 2   
   132  128  140 1   
   133  130  131 1   
   134  130  132 1   
   135  130  135 1   
   136  131  137 1   
   137  131  138 1   
   138  131  139 1   
   139  132  136 1   
   140  140  141 1   
   141  140  149 1   
   142  141  142 1   
   143  141  144 1   
   144  141  150 1   
   145  142  143 2   
   146  142  162 1   
   147  144  145 1   
   148  144  151 1   
   149  144  152 1   
   150  145  146 1   
   151  145  153 1   
   152  145  154 1   
   153  146  147 1   
   154  146  155 1   
   155  146  156 1   
   156  147  148 1   
   157  147  157 1   
   158  147  158 1   
   159  148  159 1   
   160  148  160 1   
   161  148  161 1   
   162  162  163 1   
   163  162  171 1   
   164  163  164 1   
   165  163  166 1   
   166  163  172 1   
   167  164  165 2   
   168  164  177 1   
   169  166  167 1   
   170  166  173 1   
   171  166  174 1   
   172  167  168 1   
   173  167  175 1   
   174  167  176 1   
   175  168  169 1   
   176  168  170 1   
   177  177  178 1   
   178  177  182 1   
   179  178  179 1   
   180  178  180 1   
   181  178  181 1   
   182  184  185 1   
   183  184  186 1   
   184  187  188 1   
   185  187  189 1   
   186  190  191 1   
   187  190  192 1   
@<TRIPOS>SUBSTRUCTURE
     1 MOL         1 TEMP              0 ****  ****    0 ROOT
