@<TRIPOS>MOLECULE
MOL
  192   187     1     0     0
SMALL
resp


@<TRIPOS>ATOM
      1 C1          3.0080    2.6510    2.5670 c3        1 MOL     -0.177342
      2 C2          1.9680    3.0000    1.4990 c         1 MOL      0.621783
      3 O1          1.1250    2.1660    1.1710 o         1 MOL     -0.504970
      4 H1          2.7780    1.6740    2.9920 hc        1 MOL      0.019751
      5 H2          4.0000    2.6240    2.1140 hc        1 MOL      0.019751
      6 H3          2.9880    3.4040    3.3550 hc        1 MOL      0.019751
      7 N1          1.9580    4.2240    0.9920 n         1 MOL     -0.601520
      8 C3          0.9040    4.7310    0.0770 c3        1 MOL      0.154723
      9 C4         -0.5070    4.4160    0.3540 c         1 MOL      0.732077
     10 O2         -1.2180    4.0940   -0.5890 o         1 MOL     -0.536359
     11 C5          1.3280    4.3830   -1.3680 c3        1 MOL     -0.373414
     12 C6          2.8080    4.7530   -1.6790 c         1 MOL      0.965211
     13 O3          3.3230    5.7500   -1.2490 o         1 MOL     -0.826171
     14 O4          3.4700    3.9350   -2.3460 o         1 MOL     -0.826171
     15 H4          2.6250    4.9230    1.2980 hn        1 MOL      0.275386
     16 H5          0.9370    5.8160    0.0260 h1        1 MOL      0.050075
     17 H6          0.7580    4.9210   -2.1260 hc        1 MOL      0.106082
     18 H7          1.1340    3.3190   -1.4900 hc        1 MOL      0.106082
     19 N2         -0.9170    4.5980    1.6420 n         1 MOL     -0.628399
     20 C7         -2.3010    4.3910    2.0840 c3        1 MOL     -0.192529
     21 C8         -3.2040    5.4040    1.4770 c         1 MOL      0.266946
     22 O5         -2.8030    6.5230    1.1430 o         1 MOL     -0.528659
     23 C9         -2.5400    4.3860    3.6290 c3        1 MOL      0.360692
     24 C10        -2.3970    5.7160    4.3720 c3        1 MOL      0.035285
     25 C11        -1.6850    3.1780    4.2170 c3        1 MOL     -0.231331
     26 C12        -2.6730    5.5930    5.9230 c3        1 MOL     -0.278960
     27 H8         -0.2200    5.0310    2.2320 hn        1 MOL      0.316450
     28 H9         -2.5830    3.4210    1.6770 h1        1 MOL      0.207650
     29 H10        -3.5850    4.0800    3.7390 hc        1 MOL     -0.001366
     30 H11        -3.0900    6.4390    3.9410 hc        1 MOL      0.015441
     31 H12        -1.3940    6.1410    4.3100 hc        1 MOL      0.015441
     32 H13        -2.2860    2.7610    5.0230 hc        1 MOL      0.044284
     33 H14        -1.4720    2.5450    3.3480 hc        1 MOL      0.044284
     34 H15        -0.7070    3.5580    4.5300 hc        1 MOL      0.044284
     35 H16        -3.7340    5.4610    6.1520 hc        1 MOL      0.053651
     36 H17        -2.1300    4.7180    6.3010 hc        1 MOL      0.053651
     37 H18        -2.3500    6.5610    6.2940 hc        1 MOL      0.053651
     38 N3         -4.4890    5.1270    1.1650 n         1 MOL     -0.194982
     39 C13        -5.2670    3.9150    1.2770 c3        1 MOL     -0.020969
     40 C14        -5.2140    3.0840   -0.0860 c         1 MOL      0.375999
     41 O6         -5.7040    1.9720   -0.1310 o         1 MOL     -0.465305
     42 C15        -6.7080    4.2480    1.7330 c3        1 MOL     -0.369363
     43 C16        -7.3980    5.4330    1.0370 c         1 MOL      0.780231
     44 O7         -8.1950    6.1340    1.6960 o         1 MOL     -0.725411
     45 O8         -7.0740    5.7720   -0.1380 o         1 MOL     -0.725411
     46 H19        -4.9230    5.9510    0.7680 hn        1 MOL      0.257219
     47 H20        -4.7030    3.2330    1.9190 h1        1 MOL      0.077111
     48 H21        -6.6010    4.4290    2.8060 hc        1 MOL      0.083824
     49 H22        -7.2120    3.3030    1.5800 hc        1 MOL      0.083824
     50 N4         -4.7610    3.6050   -1.2050 n         1 MOL     -0.095430
     51 C17        -4.2680    2.7890   -2.2960 c3        1 MOL     -0.402191
     52 C18        -5.3870    2.1230   -3.0350 c         1 MOL      0.718524
     53 O9         -6.1280    2.8060   -3.6380 o         1 MOL     -0.593689
     54 H23        -4.7840    4.6150   -1.2700 hn        1 MOL      0.243887
     55 H24        -3.5560    2.0610   -1.8980 h1        1 MOL      0.143406
     56 H25        -3.7980    3.3780   -3.0800 h1        1 MOL      0.143406
     57 N5         -5.4980    0.8360   -2.9960 n         1 MOL     -0.510644
     58 C19        -6.6360    0.0010   -3.4070 c3        1 MOL      0.161187
     59 C20        -7.4130   -0.6480   -2.1680 c         1 MOL      0.385725
     60 O10        -8.2750   -1.4730   -2.4070 o         1 MOL     -0.565661
     61 C21        -6.2180   -1.1040   -4.4260 c3        1 MOL     -0.331053
     62 C22        -4.8820   -1.8170   -3.9950 c         1 MOL      0.713669
     63 O11        -3.8660   -1.6950   -4.7180 o         1 MOL     -0.672162
     64 O12        -4.9110   -2.5930   -3.0040 o         1 MOL     -0.672162
     65 H26        -4.7360    0.4150   -2.4870 hn        1 MOL      0.293597
     66 H27        -7.3420    0.6980   -3.8530 h1        1 MOL      0.075100
     67 H28        -6.0440   -0.7730   -5.4500 hc        1 MOL      0.079737
     68 H29        -6.9520   -1.8980   -4.5100 hc        1 MOL      0.079737
     69 N6         -7.1400   -0.4160   -0.9090 n         1 MOL     -0.103799
     70 C23        -7.6600   -1.1150    0.2840 c3        1 MOL     -0.120615
     71 C24        -7.1170   -2.4940    0.3930 c         1 MOL      0.663055
     72 O13        -7.4320   -3.1190    1.4450 o         1 MOL     -0.634726
     73 H30        -6.5100    0.3680   -0.7980 hn        1 MOL      0.126185
     74 H31        -8.7390   -1.1770    0.1300 h1        1 MOL      0.085177
     75 H32        -7.5860   -0.6080    1.2400 h1        1 MOL      0.085177
     76 N7         -6.3770   -3.0410   -0.6200 n         1 MOL     -0.347872
     77 C25        -5.9300   -4.4180   -0.4830 c3        1 MOL      0.110376
     78 C26        -5.1170   -4.9160    0.7800 c         1 MOL      0.264236
     79 O14        -4.8740   -6.1390    0.8950 o         1 MOL     -0.478927
     80 C27        -7.0920   -5.2920   -0.9750 c3        1 MOL      0.090987
     81 C28        -7.4880   -5.1800   -2.4180 c3        1 MOL     -0.104464
     82 C29        -6.4990   -5.8490   -3.3790 c         1 MOL      0.499177
     83 N8         -5.4020   -5.2250   -3.5970 n         1 MOL     -0.558225
     84 O15        -6.6050   -7.0200   -3.7210 o         1 MOL     -0.619101
     85 H33        -6.1540   -2.4610   -1.4200 hn        1 MOL      0.116094
     86 H34        -5.2340   -4.5400   -1.3220 h1        1 MOL      0.094965
     87 H35        -8.0100   -5.2680   -0.3940 hc        1 MOL     -0.008425
     88 H36        -6.6720   -6.2980   -0.8420 hc        1 MOL     -0.008425
     89 H37        -7.4180   -4.1200   -2.6370 hc        1 MOL      0.030058
     90 H38        -8.5050   -5.4830   -2.6650 hc        1 MOL      0.030058
     91 H39        -5.1990   -4.2790   -3.2860 hn        1 MOL      0.299581
     92 H40        -4.6600   -5.7630   -4.0110 hn        1 MOL      0.299581
     93 N9         -4.6860   -3.9730    1.7000 n         1 MOL     -0.030824
     94 C30        -3.9120   -4.2340    2.9360 c3        1 MOL     -0.263648
     95 C31        -2.4560   -3.7780    2.8510 c         1 MOL      0.596133
     96 O16        -1.7640   -4.0020    3.8690 o         1 MOL     -0.593997
     97 C32        -4.6260   -3.6740    4.1680 c3        1 MOL      0.411457
     98 C33        -4.9810   -2.2200    3.8920 c3        1 MOL     -0.464858
     99 C34        -5.9140   -4.4900    4.3640 c3        1 MOL     -0.464858
    100 H41        -4.9020   -3.0120    1.4850 hn        1 MOL      0.132284
    101 H42        -3.9810   -5.3080    3.0920 h1        1 MOL      0.119098
    102 H43        -3.9700   -3.6880    5.0340 hc        1 MOL     -0.045184
    103 H44        -5.7330   -2.1360    3.0980 hc        1 MOL      0.109564
    104 H45        -5.2200   -1.7390    4.8380 hc        1 MOL      0.109564
    105 H46        -4.0400   -1.7150    3.7110 hc        1 MOL      0.109564
    106 H47        -5.5810   -5.5280    4.4590 hc        1 MOL      0.109564
    107 H48        -6.4240   -4.1380    5.2600 hc        1 MOL      0.109564
    108 H49        -6.6200   -4.3270    3.5520 hc        1 MOL      0.109564
    109 N10        -1.9800   -3.1850    1.7730 n         1 MOL     -0.497249
    110 C35        -0.5830   -2.8030    1.6490 c3        1 MOL      0.287714
    111 C36         0.2320   -3.4270    0.5100 c         1 MOL      0.543710
    112 O17        -0.4530   -4.0630   -0.3190 o         1 MOL     -0.521550
    113 C37        -0.5060   -1.2950    1.6550 c3        1 MOL     -0.004632
    114 C38        -1.1380   -0.6030    2.8630 c         1 MOL      0.655157
    115 N11        -0.2960   -0.4800    3.8830 n         1 MOL     -0.850856
    116 O18        -2.2730   -0.1060    2.7740 o         1 MOL     -0.605249
    117 H50        -2.5020   -3.0450    0.9200 hn        1 MOL      0.263013
    118 H51        -0.0280   -3.1520    2.5190 h1        1 MOL     -0.030531
    119 H52        -0.8830   -0.8320    0.7410 hc        1 MOL      0.026077
    120 H53         0.5290   -0.9730    1.7140 hc        1 MOL      0.026077
    121 H54         0.6260   -0.9040    3.8670 hn        1 MOL      0.385923
    122 H55        -0.7190   -0.1020    4.7170 hn        1 MOL      0.385923
    123 N12         1.5630   -3.1960    0.4990 n         1 MOL     -0.539063
    124 C39         2.5730   -3.7030   -0.4470 c3        1 MOL      0.083186
    125 C40         3.9930   -3.5060    0.0190 c         1 MOL      0.643534
    126 O19         4.1630   -2.5950    0.8130 o         1 MOL     -0.552943
    127 C41         2.3440   -3.1180   -1.8460 c3        1 MOL     -0.326326
    128 C42         3.0480   -1.7970   -2.0960 ca        1 MOL      0.048373
    129 C43         2.6720   -0.5670   -1.4710 ca        1 MOL     -0.100745
    130 C44         4.0400   -1.7810   -3.0540 ca        1 MOL     -0.100745
    131 C45         3.1280    0.6300   -2.0380 ca        1 MOL     -0.267007
    132 C46         4.5510   -0.6050   -3.5510 ca        1 MOL     -0.267007
    133 C47         4.1050    0.6110   -3.0400 ca        1 MOL      0.310902
    134 O20         4.5430    1.7700   -3.5810 oh        1 MOL     -0.551440
    135 H56         1.9360   -2.7290    1.3090 hn        1 MOL      0.282689
    136 H57         2.3920   -4.7720   -0.5130 h1        1 MOL      0.061746
    137 H58         1.2740   -2.9150   -1.9020 hc        1 MOL      0.141487
    138 H59         2.6660   -3.8440   -2.5860 hc        1 MOL      0.141487
    139 H60         1.9960   -0.6140   -0.6290 ha        1 MOL      0.107283
    140 H61         4.4460   -2.6730   -3.5230 ha        1 MOL      0.107283
    141 H62         2.7850    1.5560   -1.6060 ha        1 MOL      0.139502
    142 H63         5.2650   -0.5800   -4.3670 ha        1 MOL      0.139502
    143 H64         4.1030    2.5220   -3.1730 ho        1 MOL      0.439126
    144 N13         4.9600   -4.3520   -0.3780 n         1 MOL     -0.686895
    145 C48         6.3080   -4.3180    0.0890 c3        1 MOL      0.347591
    146 C49         7.0990   -3.2530   -0.6820 c         1 MOL      0.521867
    147 O21         7.3020   -3.3830   -1.9250 o         1 MOL     -0.552244
    148 C50         6.8900   -5.6740   -0.1290 c3        1 MOL     -0.203691
    149 C51         8.2340   -5.8470    0.5670 c3        1 MOL     -0.099501
    150 C52         8.9700   -7.1620    0.3760 c         1 MOL      0.705679
    151 O22         9.2530   -7.8600    1.3870 o         1 MOL     -0.719731
    152 O23         9.3190   -7.4650   -0.7910 o         1 MOL     -0.719731
    153 H65         4.7590   -5.0800   -1.0490 hn        1 MOL      0.347522
    154 H66         6.3590   -3.9340    1.1070 h1        1 MOL     -0.012134
    155 H67         6.9570   -5.8030   -1.2140 hc        1 MOL      0.058415
    156 H68         6.2070   -6.4470    0.2390 hc        1 MOL      0.058415
    157 H69         8.1040   -5.7310    1.6450 hc        1 MOL      0.020002
    158 H70         8.9550   -5.0830    0.2880 hc        1 MOL      0.020002
    159 N14         7.4740   -2.0660   -0.1170 n         1 MOL     -0.446715
    160 C53         7.1760   -1.4730    1.1520 c3        1 MOL     -0.083593
    161 C54         8.1970   -1.7520    2.2130 c         1 MOL      0.527112
    162 O24         9.3790   -2.0190    1.9220 o         1 MOL     -0.500486
    163 C55         6.9540    0.0410    0.9980 c3        1 MOL      0.138262
    164 C56         5.7790    0.4500    0.1270 c3        1 MOL      0.403984
    165 C57         5.9840    1.9190   -0.3260 c         1 MOL      0.446400
    166 O25         6.8280    2.2780   -1.1840 o         1 MOL     -0.705685
    167 O26         5.3520    2.8560    0.1340 o         1 MOL     -0.705685
    168 H71         7.8550   -1.4440   -0.8240 hn        1 MOL      0.281678
    169 H72         6.1780   -1.7450    1.4860 h1        1 MOL      0.055185
    170 H73         7.8970    0.4610    0.6520 hc        1 MOL     -0.057927
    171 H74         6.7810    0.4840    1.9820 hc        1 MOL     -0.057927
    172 H75         4.8790    0.3410    0.7280 hc        1 MOL     -0.056906
    173 H76         5.7050   -0.1470   -0.7880 hc        1 MOL     -0.056906
    174 N15         7.7130   -1.8060    3.5130 n         1 MOL     -0.405976
    175 C58         8.5360   -2.2150    4.7110 c3        1 MOL     -0.252953
    176 H77         9.5780   -1.9450    4.5440 h1        1 MOL      0.116030
    177 H78         8.1660   -1.7010    5.5980 h1        1 MOL      0.116030
    178 H79         8.4580   -3.2920    4.8560 h1        1 MOL      0.116030
    179 H80         6.7290   -1.6670    3.6610 hn        1 MOL      0.291151
    180 Ca1         5.7640    4.8690   -1.3810 Ca        1 MOL      1.741455
    181 O27         6.8520    7.1690   -1.8870 oh        1 MOL     -0.824123
    182 H81         7.4510    7.6330   -2.4760 ho        1 MOL      0.401745
    183 H82         6.5910    7.8190   -1.2340 ho        1 MOL      0.401745
    184 O28         8.1730    5.3110   -0.1170 oh        1 MOL     -0.824123
    185 H83         8.8070    4.6930   -0.4750 ho        1 MOL      0.401745
    186 H84         8.6920    5.9150    0.4230 ho        1 MOL      0.401745
    187 O29         7.2900    4.5300   -3.6030 oh        1 MOL     -0.824123
    188 H85         7.5490    3.7510   -4.0910 ho        1 MOL      0.401745
    189 H86         7.3670    5.2490   -4.2310 ho        1 MOL      0.401745
    190 O30         4.7410    6.0280   -3.9690 oh        1 MOL     -0.824123
    191 H87         4.4770    6.9150   -4.2460 ho        1 MOL      0.401745
    192 H88         4.6280    5.4960   -4.7510 ho        1 MOL      0.401745
@<TRIPOS>BOND
     1    1    2 1   
     2    1    4 1   
     3    1    5 1   
     4    1    6 1   
     5    2    3 2   
     6    2    7 1   
     7    7    8 1   
     8    7   15 1   
     9    8    9 1   
    10    8   11 1   
    11    8   16 1   
    12    9   10 2   
    13    9   19 1   
    14   11   12 1   
    15   11   17 1   
    16   11   18 1   
    17   12   13 1   
    18   12   14 1   
    19   19   20 1   
    20   19   27 1   
    21   20   21 1   
    22   20   23 1   
    23   20   28 1   
    24   21   22 2   
    25   21   38 1   
    26   23   24 1   
    27   23   25 1   
    28   23   29 1   
    29   24   26 1   
    30   24   30 1   
    31   24   31 1   
    32   25   32 1   
    33   25   33 1   
    34   25   34 1   
    35   26   35 1   
    36   26   36 1   
    37   26   37 1   
    38   38   39 1   
    39   38   46 1   
    40   39   40 1   
    41   39   42 1   
    42   39   47 1   
    43   40   41 2   
    44   40   50 1   
    45   42   43 1   
    46   42   48 1   
    47   42   49 1   
    48   43   44 1   
    49   43   45 1   
    50   50   51 1   
    51   50   54 1   
    52   51   52 1   
    53   51   55 1   
    54   51   56 1   
    55   52   53 2   
    56   52   57 1   
    57   57   58 1   
    58   57   65 1   
    59   58   59 1   
    60   58   61 1   
    61   58   66 1   
    62   59   60 2   
    63   59   69 1   
    64   61   62 1   
    65   61   67 1   
    66   61   68 1   
    67   62   63 1   
    68   62   64 1   
    69   69   70 1   
    70   69   73 1   
    71   70   71 1   
    72   70   74 1   
    73   70   75 1   
    74   71   72 2   
    75   71   76 1   
    76   76   77 1   
    77   76   85 1   
    78   77   78 1   
    79   77   80 1   
    80   77   86 1   
    81   78   79 2   
    82   78   93 1   
    83   80   81 1   
    84   80   87 1   
    85   80   88 1   
    86   81   82 1   
    87   81   89 1   
    88   81   90 1   
    89   82   83 1   
    90   82   84 2   
    91   83   91 1   
    92   83   92 1   
    93   93   94 1   
    94   93  100 1   
    95   94   95 1   
    96   94   97 1   
    97   94  101 1   
    98   95   96 2   
    99   95  109 1   
   100   97   98 1   
   101   97   99 1   
   102   97  102 1   
   103   98  103 1   
   104   98  104 1   
   105   98  105 1   
   106   99  106 1   
   107   99  107 1   
   108   99  108 1   
   109  109  110 1   
   110  109  117 1   
   111  110  111 1   
   112  110  113 1   
   113  110  118 1   
   114  111  112 2   
   115  111  123 1   
   116  113  114 1   
   117  113  119 1   
   118  113  120 1   
   119  114  115 1   
   120  114  116 2   
   121  115  121 1   
   122  115  122 1   
   123  123  124 1   
   124  123  135 1   
   125  124  125 1   
   126  124  127 1   
   127  124  136 1   
   128  125  126 2   
   129  125  144 1   
   130  127  128 1   
   131  127  137 1   
   132  127  138 1   
   133  128  129 ar  
   134  128  130 ar  
   135  129  131 ar  
   136  129  139 1   
   137  130  132 ar  
   138  130  140 1   
   139  131  133 ar  
   140  131  141 1   
   141  132  133 ar  
   142  132  142 1   
   143  133  134 1   
   144  134  143 1   
   145  144  145 1   
   146  144  153 1   
   147  145  146 1   
   148  145  148 1   
   149  145  154 1   
   150  146  147 2   
   151  146  159 1   
   152  148  149 1   
   153  148  155 1   
   154  148  156 1   
   155  149  150 1   
   156  149  157 1   
   157  149  158 1   
   158  150  151 1   
   159  150  152 1   
   160  159  160 1   
   161  159  168 1   
   162  160  161 1   
   163  160  163 1   
   164  160  169 1   
   165  161  162 2   
   166  161  174 1   
   167  163  164 1   
   168  163  170 1   
   169  163  171 1   
   170  164  165 1   
   171  164  172 1   
   172  164  173 1   
   173  165  166 1   
   174  165  167 1   
   175  174  175 1   
   176  174  179 1   
   177  175  176 1   
   178  175  177 1   
   179  175  178 1   
   180  181  182 1   
   181  181  183 1   
   182  184  185 1   
   183  184  186 1   
   184  187  188 1   
   185  187  189 1   
   186  190  191 1   
   187  190  192 1   
@<TRIPOS>SUBSTRUCTURE
     1 MOL         1 TEMP              0 ****  ****    0 ROOT
