@<TRIPOS>MOLECULE
MOL
  189   185     1     0     0
SMALL
resp


@<TRIPOS>ATOM
      1 C1          9.8660    0.8970    0.5110 c3        1 MOL     -0.559530
      2 C2          8.5260    0.3920    0.0090 c         1 MOL      0.848330
      3 O1          7.5870    0.2740    0.7890 o         1 MOL     -0.678861
      4 H1         10.3620    0.1090    1.0770 hc        1 MOL      0.139855
      5 H2         10.4890    1.1810   -0.3370 hc        1 MOL      0.139855
      6 H3          9.7110    1.7630    1.1550 hc        1 MOL      0.139855
      7 N1          8.5020    0.0490   -1.2750 n         1 MOL     -0.738410
      8 C3          7.3120   -0.3960   -1.9590 c3        1 MOL      0.175714
      9 C4          6.9570   -1.8790   -1.7600 c         1 MOL      0.497368
     10 O2          6.8170   -2.6930   -2.6880 o         1 MOL     -0.493566
     11 C5          7.3650   -0.0850   -3.4900 c3        1 MOL     -0.207210
     12 C6          7.7610    1.3300   -3.8630 c         1 MOL      0.680106
     13 O3          8.2470    1.5620   -5.0080 o         1 MOL     -0.641964
     14 O4          7.4840    2.2750   -3.0840 o         1 MOL     -0.641964
     15 H4          9.3670    0.0600   -1.7870 hn        1 MOL      0.378306
     16 H5          6.4660    0.1970   -1.6100 h1        1 MOL      0.070351
     17 H6          6.4190   -0.3150   -3.9810 hc        1 MOL      0.062347
     18 H7          8.0600   -0.8250   -3.8990 hc        1 MOL      0.062347
     19 N2          6.7390   -2.2840   -0.4690 n         1 MOL     -0.424723
     20 C7          6.2340   -3.6160   -0.1260 c3        1 MOL      0.209619
     21 C8          4.6830   -3.8850   -0.2490 c         1 MOL      0.452557
     22 O5          4.3200   -4.9050   -0.8380 o         1 MOL     -0.528387
     23 C9          6.7530   -4.0400    1.2790 c3        1 MOL     -0.223202
     24 C10         8.2970   -4.0750    1.3020 c3        1 MOL      0.077525
     25 C11         8.8270   -4.3220    2.7560 c3        1 MOL     -0.019026
     26 C12        10.3310   -4.6820    2.8040 c3        1 MOL      0.109663
     27 N3         10.7080   -4.5580    4.2240 n4        1 MOL     -0.303444
     28 H8          6.7230   -1.5160    0.1910 hn        1 MOL      0.272957
     29 H9          6.7800   -4.3300   -0.7340 h1        1 MOL      0.039508
     30 H10         6.3840   -5.0420    1.5180 hc        1 MOL      0.061695
     31 H11         6.3380   -3.4480    2.0920 hc        1 MOL      0.061695
     32 H12         8.7730   -3.1440    0.9990 hc        1 MOL     -0.005102
     33 H13         8.8000   -4.8110    0.6770 hc        1 MOL     -0.005102
     34 H14         8.3570   -5.1800    3.2240 hc        1 MOL      0.021283
     35 H15         8.6160   -3.4550    3.3720 hc        1 MOL      0.021283
     36 H16        10.8980   -4.0050    2.1720 hx        1 MOL      0.054505
     37 H17        10.6030   -5.6820    2.4470 hx        1 MOL      0.054505
     38 H18        11.6900   -4.7900    4.1670 hn        1 MOL      0.252888
     39 H19        10.6470   -3.6450    4.6580 hn        1 MOL      0.252888
     40 H20        10.2350   -5.2900    4.7420 hn        1 MOL      0.252888
     41 N4          3.8070   -2.9610    0.0880 n         1 MOL     -0.435224
     42 C13         3.9060   -1.6250    0.7660 c3        1 MOL      0.194314
     43 C14         3.9900   -0.4200   -0.2020 c         1 MOL      0.300809
     44 O6          3.8050   -0.6420   -1.4020 o         1 MOL     -0.459680
     45 C15         2.7680   -1.4350    1.8330 c3        1 MOL     -0.237818
     46 C16         1.3350   -1.9240    1.4790 c         1 MOL      0.772935
     47 O7          0.4970   -1.0800    1.0490 o         1 MOL     -0.709034
     48 O8          1.0500   -3.1320    1.6170 o         1 MOL     -0.709034
     49 H21         2.8630   -3.2370   -0.1360 hn        1 MOL      0.345048
     50 H22         4.8970   -1.6420    1.2410 h1        1 MOL      0.021211
     51 H23         2.7140   -0.3900    2.1330 hc        1 MOL      0.023969
     52 H24         3.0570   -1.9720    2.7390 hc        1 MOL      0.023969
     53 N5          4.3090    0.7950    0.2420 n         1 MOL     -0.159415
     54 C17         4.1570    2.1010   -0.5300 c3        1 MOL     -0.253867
     55 C18         2.7870    2.5260   -0.9260 c         1 MOL      0.724760
     56 O9          1.7900    2.1280   -0.3690 o         1 MOL     -0.619284
     57 H25         4.5870    0.9210    1.2020 hn        1 MOL      0.245706
     58 H26         4.7000    1.9580   -1.4670 h1        1 MOL      0.124077
     59 H27         4.4720    3.0130   -0.0280 h1        1 MOL      0.124077
     60 N6          2.7370    3.4490   -1.9490 n         1 MOL     -0.403482
     61 C19         1.5700    4.1040   -2.4720 c3        1 MOL     -0.019549
     62 C20         1.9560    5.5740   -2.8640 c         1 MOL      0.475349
     63 O10         3.1510    5.8710   -3.0860 o         1 MOL     -0.506126
     64 C21         1.0860    3.3860   -3.6530 c3        1 MOL     -0.214916
     65 C22         0.5190    2.0170   -3.4680 c         1 MOL      0.594205
     66 O11        -0.3860    1.8650   -2.5530 o         1 MOL     -0.649098
     67 O12         1.0110    1.0700   -4.1170 o         1 MOL     -0.649098
     68 H28         3.6500    3.6580   -2.3280 hn        1 MOL      0.287926
     69 H29         0.7770    4.1740   -1.7290 h1        1 MOL      0.127326
     70 H30         1.9200    3.1370   -4.3020 hc        1 MOL      0.095098
     71 H31         0.4350    3.9780   -4.2960 hc        1 MOL      0.095098
     72 N7          1.0540    6.6000   -2.7810 n         1 MOL     -0.442159
     73 C23        -0.3990    6.5220   -2.6850 c3        1 MOL      0.026984
     74 C24        -0.9170    6.3510   -1.2290 c         1 MOL      0.614592
     75 O13        -0.3390    7.0240   -0.3520 o         1 MOL     -0.534222
     76 H32         1.4380    7.4730   -3.1160 hn        1 MOL      0.311891
     77 H33        -0.7730    5.7120   -3.3110 h1        1 MOL      0.046208
     78 H34        -0.9190    7.3800   -3.1100 h1        1 MOL      0.046208
     79 N8         -1.9390    5.5320   -1.0090 n         1 MOL     -0.591335
     80 C25        -2.5050    5.1550    0.3070 c3        1 MOL     -0.039193
     81 C26        -1.8220    3.9340    0.9160 c         1 MOL      0.947479
     82 O14        -1.4080    3.0220    0.2140 o         1 MOL     -0.711422
     83 C27        -3.9950    4.9020    0.1910 c3        1 MOL      0.523507
     84 C28        -4.4450    3.8070   -0.6980 c3        1 MOL     -0.255784
     85 O15        -4.5900    6.1040   -0.2090 oh        1 MOL     -0.651849
     86 H35        -2.3070    5.0020   -1.7940 hn        1 MOL      0.276122
     87 H36        -2.3730    5.8910    1.1070 h1        1 MOL      0.047127
     88 H37        -4.3030    4.6600    1.2050 h1        1 MOL     -0.023882
     89 H38        -4.1660    6.2980   -1.0460 ho        1 MOL      0.385365
     90 H39        -4.3730    2.8450   -0.2050 hc        1 MOL      0.040022
     91 H40        -5.4950    3.9820   -0.9330 hc        1 MOL      0.040022
     92 H41        -3.8170    3.8160   -1.5900 hc        1 MOL      0.040022
     93 N9         -1.6650    3.8900    2.2260 n         1 MOL     -0.868287
     94 C29        -0.9540    2.8580    3.0620 c3        1 MOL      0.371876
     95 C30        -1.5780    1.5230    3.0000 c         1 MOL      0.555251
     96 O16        -1.6350    0.8640    1.9200 o         1 MOL     -0.546319
     97 C31         0.5590    2.7940    2.8840 c3        1 MOL      0.011464
     98 C32         1.1930    4.2180    2.8020 c3        1 MOL      0.090620
     99 C33         1.2720    1.9120    3.9480 c3        1 MOL     -0.567569
    100 C34         2.6690    4.2620    2.6980 c3        1 MOL     -0.262964
    101 H42        -1.9760    4.7300    2.7050 hn        1 MOL      0.332908
    102 H43        -1.0560    3.2380    4.0690 h1        1 MOL      0.000326
    103 H44         0.7040    2.3980    1.8770 hc        1 MOL     -0.021766
    104 H45         0.8710    4.8050    3.6620 hc        1 MOL      0.014275
    105 H46         0.8000    4.7440    1.9330 hc        1 MOL      0.014275
    106 H47         0.9490    0.8870    4.1000 hc        1 MOL      0.154443
    107 H48         2.2880    1.8410    3.5600 hc        1 MOL      0.154443
    108 H49         1.3120    2.3670    4.9320 hc        1 MOL      0.154443
    109 H50         3.0520    5.2010    2.2970 hc        1 MOL      0.072058
    110 H51         3.0100    4.1300    3.7200 hc        1 MOL      0.072058
    111 H52         2.9280    3.4920    1.9740 hc        1 MOL      0.072058
    112 N10        -2.0280    0.9980    4.1070 n         1 MOL     -0.631193
    113 C35        -2.3900   -0.4110    4.2620 c3        1 MOL     -0.034284
    114 C36        -3.8040   -0.7640    3.7350 c         1 MOL      0.487557
    115 O17        -4.2100   -1.9480    3.7570 o         1 MOL     -0.515854
    116 C37        -2.1690   -0.7970    5.7380 c3        1 MOL      0.444370
    117 C38        -3.1670   -0.3070    6.7550 c3        1 MOL     -0.206822
    118 O18        -0.8380   -0.4610    6.2100 oh        1 MOL     -0.624278
    119 H53        -2.1970    1.5800    4.9140 hn        1 MOL      0.334142
    120 H54        -1.6710   -1.0370    3.7390 h1        1 MOL      0.096688
    121 H55        -2.2730   -1.8800    5.6410 h1        1 MOL     -0.019504
    122 H56        -0.2490   -0.9180    5.6000 ho        1 MOL      0.396127
    123 H57        -3.1580    0.7770    6.8420 hc        1 MOL      0.059983
    124 H58        -4.2110   -0.5760    6.5940 hc        1 MOL      0.059983
    125 H59        -2.9240   -0.8180    7.6970 hc        1 MOL      0.059983
    126 N11        -4.5660    0.2820    3.2870 n         1 MOL     -0.289037
    127 C39        -5.9180    0.2160    2.8150 c3        1 MOL     -0.254367
    128 C40        -5.8410   -0.5150    1.4630 c         1 MOL      0.466228
    129 O19        -5.0170   -0.1710    0.6500 o         1 MOL     -0.367083
    130 C41        -6.4400    1.5860    2.5040 c3        1 MOL      0.435854
    131 C42        -7.9250    1.5440    2.1870 c3        1 MOL     -0.570526
    132 O20        -6.5000    2.4320    3.6140 oh        1 MOL     -0.689535
    133 H60        -4.1050    1.1690    3.4570 hn        1 MOL      0.242391
    134 H61        -6.5700   -0.3880    3.4280 h1        1 MOL      0.130174
    135 H62        -5.8770    2.0220    1.6750 h1        1 MOL      0.116959
    136 H63        -7.1520    2.1690    4.2660 ho        1 MOL      0.433057
    137 H64        -8.0150    1.0350    1.2270 hc        1 MOL      0.152013
    138 H65        -8.4910    1.0690    2.9850 hc        1 MOL      0.152013
    139 H66        -8.2350    2.5830    2.0180 hc        1 MOL      0.152013
    140 N12        -6.7180   -1.5100    1.2670 n         1 MOL     -0.500120
    141 C43        -6.8700   -2.2610   -0.0590 c3        1 MOL      0.170274
    142 C44        -5.6100   -2.3960   -0.8670 c         1 MOL      0.301861
    143 O21        -5.4690   -1.6830   -1.8820 o         1 MOL     -0.520451
    144 C45        -8.1280   -1.7440   -0.7860 c3        1 MOL     -0.487191
    145 C46        -8.5790   -2.6690   -1.9210 c3        1 MOL      0.307799
    146 C47        -9.7560   -2.1130   -2.7350 c3        1 MOL     -0.395968
    147 C48       -10.2170   -3.1020   -3.8520 c3        1 MOL      0.022931
    148 N13       -11.2730   -2.6020   -4.7500 n4        1 MOL     -0.066120
    149 H67        -7.2390   -1.8510    2.0530 hn        1 MOL      0.318383
    150 H68        -7.1930   -3.2690    0.2010 h1        1 MOL      0.032156
    151 H69        -7.8280   -0.8000   -1.2360 hc        1 MOL      0.140367
    152 H70        -8.8680   -1.5360   -0.0130 hc        1 MOL      0.140367
    153 H71        -8.8040   -3.6660   -1.5370 hc        1 MOL     -0.006049
    154 H72        -7.7710   -2.8760   -2.6210 hc        1 MOL     -0.006049
    155 H73        -9.1990   -1.3360   -3.2680 hc        1 MOL      0.138459
    156 H74       -10.5570   -1.6580   -2.1530 hc        1 MOL      0.138459
    157 H75       -10.4890   -4.0740   -3.4330 hx        1 MOL      0.093855
    158 H76        -9.2670   -3.2080   -4.3680 hx        1 MOL      0.093855
    159 H77       -12.2190   -2.7430   -4.4380 hn        1 MOL      0.189483
    160 H78       -11.1570   -1.6270   -4.9840 hn        1 MOL      0.189483
    161 H79       -11.2950   -3.1350   -5.6040 hn        1 MOL      0.189483
    162 N14        -4.7000   -3.2500   -0.4930 n         1 MOL     -0.240687
    163 C49        -3.4270   -3.4460   -1.2750 c3        1 MOL      0.217751
    164 C50        -2.1090   -3.0450   -0.5460 c         1 MOL      0.370472
    165 O22        -1.4980   -2.0850   -0.9740 o         1 MOL     -0.565684
    166 C51        -3.4390   -4.8520   -1.8240 c3        1 MOL      0.216467
    167 C52        -4.5460   -4.9810   -2.8610 c3        1 MOL     -0.338374
    168 C53        -4.5660   -6.2840   -3.6820 c         1 MOL      0.674480
    169 O23        -5.2150   -7.2780   -3.2560 o         1 MOL     -0.639615
    170 O24        -3.9130   -6.4070   -4.7170 o         1 MOL     -0.639615
    171 H80        -4.9510   -3.8890    0.2450 hn        1 MOL      0.248902
    172 H81        -3.5850   -2.8010   -2.1330 h1        1 MOL      0.048559
    173 H82        -3.6660   -5.6320   -1.1030 hc        1 MOL     -0.022658
    174 H83        -2.4680   -5.0850   -2.2630 hc        1 MOL     -0.022658
    175 H84        -4.3930   -4.1820   -3.5840 hc        1 MOL      0.061060
    176 H85        -5.5010   -4.8700   -2.3670 hc        1 MOL      0.061060
    177 N15        -1.5730   -3.6710    0.5020 n         1 MOL     -0.408885
    178 C54        -2.0270   -4.8630    1.2900 c3        1 MOL     -0.013129
    179 H86        -1.7170   -4.7510    2.3280 h1        1 MOL      0.036139
    180 H87        -3.1140   -4.9380    1.2420 h1        1 MOL      0.036139
    181 H88        -1.5810   -5.7660    0.8730 h1        1 MOL      0.036139
    182 H89        -0.7230   -3.2400    0.8440 hn        1 MOL      0.397953
    183 Ca1        -0.5790    0.5810   -0.4670 Ca        1 MOL      1.771405
    184 O25         1.1520   -0.4910   -2.0150 oh        1 MOL     -1.044740
    185 H90         2.0660   -0.7470   -1.9240 ho        1 MOL      0.483246
    186 H91         1.0400   -0.2830   -2.9400 ho        1 MOL      0.483246
    187 O26        -3.2950    0.8040   -0.8610 oh        1 MOL     -1.044740
    188 H92        -3.8480    1.1980   -1.5370 ho        1 MOL      0.483246
    189 H93        -3.9020    0.3310   -0.3030 ho        1 MOL      0.483246
@<TRIPOS>BOND
     1    1    2 1   
     2    1    4 1   
     3    1    5 1   
     4    1    6 1   
     5    2    3 2   
     6    2    7 1   
     7    7    8 1   
     8    7   15 1   
     9    8    9 1   
    10    8   11 1   
    11    8   16 1   
    12    9   10 2   
    13    9   19 1   
    14   11   12 1   
    15   11   17 1   
    16   11   18 1   
    17   12   13 1   
    18   12   14 1   
    19   19   20 1   
    20   19   28 1   
    21   20   21 1   
    22   20   23 1   
    23   20   29 1   
    24   21   22 2   
    25   21   41 1   
    26   23   24 1   
    27   23   30 1   
    28   23   31 1   
    29   24   25 1   
    30   24   32 1   
    31   24   33 1   
    32   25   26 1   
    33   25   34 1   
    34   25   35 1   
    35   26   27 1   
    36   26   36 1   
    37   26   37 1   
    38   27   38 1   
    39   27   39 1   
    40   27   40 1   
    41   41   42 1   
    42   41   49 1   
    43   42   43 1   
    44   42   45 1   
    45   42   50 1   
    46   43   44 2   
    47   43   53 1   
    48   45   46 1   
    49   45   51 1   
    50   45   52 1   
    51   46   47 1   
    52   46   48 1   
    53   53   54 1   
    54   53   57 1   
    55   54   55 1   
    56   54   58 1   
    57   54   59 1   
    58   55   56 2   
    59   55   60 1   
    60   60   61 1   
    61   60   68 1   
    62   61   62 1   
    63   61   64 1   
    64   61   69 1   
    65   62   63 2   
    66   62   72 1   
    67   64   65 1   
    68   64   70 1   
    69   64   71 1   
    70   65   66 1   
    71   65   67 1   
    72   72   73 1   
    73   72   76 1   
    74   73   74 1   
    75   73   77 1   
    76   73   78 1   
    77   74   75 2   
    78   74   79 1   
    79   79   80 1   
    80   79   86 1   
    81   80   81 1   
    82   80   83 1   
    83   80   87 1   
    84   81   82 2   
    85   81   93 1   
    86   83   84 1   
    87   83   85 1   
    88   83   88 1   
    89   84   90 1   
    90   84   91 1   
    91   84   92 1   
    92   85   89 1   
    93   93   94 1   
    94   93  101 1   
    95   94   95 1   
    96   94   97 1   
    97   94  102 1   
    98   95   96 2   
    99   95  112 1   
   100   97   98 1   
   101   97   99 1   
   102   97  103 1   
   103   98  100 1   
   104   98  104 1   
   105   98  105 1   
   106   99  106 1   
   107   99  107 1   
   108   99  108 1   
   109  100  109 1   
   110  100  110 1   
   111  100  111 1   
   112  112  113 1   
   113  112  119 1   
   114  113  114 1   
   115  113  116 1   
   116  113  120 1   
   117  114  115 2   
   118  114  126 1   
   119  116  117 1   
   120  116  118 1   
   121  116  121 1   
   122  117  123 1   
   123  117  124 1   
   124  117  125 1   
   125  118  122 1   
   126  126  127 1   
   127  126  133 1   
   128  127  128 1   
   129  127  130 1   
   130  127  134 1   
   131  128  129 2   
   132  128  140 1   
   133  130  131 1   
   134  130  132 1   
   135  130  135 1   
   136  131  137 1   
   137  131  138 1   
   138  131  139 1   
   139  132  136 1   
   140  140  141 1   
   141  140  149 1   
   142  141  142 1   
   143  141  144 1   
   144  141  150 1   
   145  142  143 2   
   146  142  162 1   
   147  144  145 1   
   148  144  151 1   
   149  144  152 1   
   150  145  146 1   
   151  145  153 1   
   152  145  154 1   
   153  146  147 1   
   154  146  155 1   
   155  146  156 1   
   156  147  148 1   
   157  147  157 1   
   158  147  158 1   
   159  148  159 1   
   160  148  160 1   
   161  148  161 1   
   162  162  163 1   
   163  162  171 1   
   164  163  164 1   
   165  163  166 1   
   166  163  172 1   
   167  164  165 2   
   168  164  177 1   
   169  166  167 1   
   170  166  173 1   
   171  166  174 1   
   172  167  168 1   
   173  167  175 1   
   174  167  176 1   
   175  168  169 1   
   176  168  170 1   
   177  177  178 1   
   178  177  182 1   
   179  178  179 1   
   180  178  180 1   
   181  178  181 1   
   182  184  185 1   
   183  184  186 1   
   184  187  188 1   
   185  187  189 1   
@<TRIPOS>SUBSTRUCTURE
     1 MOL         1 TEMP              0 ****  ****    0 ROOT
