@<TRIPOS>MOLECULE
MOL
  195   189     1     0     0
SMALL
resp


@<TRIPOS>ATOM
      1 C1         -3.6120   -2.7390    3.6350 c3        1 MOL     -0.357230
      2 C2         -3.0310   -2.7160    2.1920 c         1 MOL      0.633721
      3 O1         -2.2010   -1.8930    1.9350 o         1 MOL     -0.487317
      4 H1         -3.7230   -1.7170    3.9980 hc        1 MOL      0.084472
      5 H2         -4.5860   -3.2290    3.6270 hc        1 MOL      0.084472
      6 H3         -2.9350   -3.2850    4.2920 hc        1 MOL      0.084472
      7 N1         -3.5970   -3.5470    1.3070 n         1 MOL     -0.480479
      8 C3         -3.2320   -3.6300   -0.1320 c3        1 MOL     -0.067658
      9 C4         -1.7040   -3.6080   -0.3230 c         1 MOL      0.565340
     10 O2         -1.2360   -3.0150   -1.3100 o         1 MOL     -0.506334
     11 C5         -4.0500   -2.5360   -0.9320 c3        1 MOL     -0.022200
     12 C6         -5.5940   -2.4940   -0.6420 c         1 MOL      0.642597
     13 O3         -6.4060   -3.0780   -1.3750 o         1 MOL     -0.762924
     14 O4         -6.0320   -1.8390    0.3730 o         1 MOL     -0.762924
     15 H4         -4.3090   -4.2030    1.6100 hn        1 MOL      0.241671
     16 H5         -3.5620   -4.6110   -0.4820 h1        1 MOL      0.106440
     17 H6         -3.9350   -2.6830   -1.9990 hc        1 MOL      0.054738
     18 H7         -3.6170   -1.5430   -0.7500 hc        1 MOL      0.054738
     19 N2         -0.8820   -4.3320    0.5000 n         1 MOL     -0.563604
     20 C7          0.5530   -4.5710    0.4450 c3        1 MOL     -0.017524
     21 C8          0.9130   -5.2630   -0.8690 c         1 MOL      0.663472
     22 O5          0.1270   -5.9200   -1.5520 o         1 MOL     -0.568215
     23 C9          0.9950   -5.2650    1.7820 c3        1 MOL      0.259835
     24 C10         1.1550   -6.7150    1.5990 c3        1 MOL      0.003019
     25 C11         0.1130   -4.8690    2.9980 c3        1 MOL     -0.097922
     26 C12         1.5690   -7.4980    2.9020 c3        1 MOL     -0.069695
     27 H8         -1.4340   -4.7330    1.2510 hn        1 MOL      0.263265
     28 H9          1.0150   -3.5800    0.4370 h1        1 MOL      0.110082
     29 H10         1.9570   -4.8170    2.0530 hc        1 MOL     -0.039130
     30 H11         1.8800   -6.8480    0.7950 hc        1 MOL     -0.009046
     31 H12         0.1590   -7.0040    1.2680 hc        1 MOL     -0.009046
     32 H13         0.5340   -5.1670    3.9550 hc        1 MOL      0.016320
     33 H14         0.1610   -3.7840    3.0090 hc        1 MOL      0.016320
     34 H15        -0.9020   -5.2640    3.0150 hc        1 MOL      0.016320
     35 H16         1.4670   -8.5730    2.7680 hc        1 MOL      0.006310
     36 H17         2.5780   -7.2650    3.2420 hc        1 MOL      0.006310
     37 H18         0.8550   -7.4040    3.7130 hc        1 MOL      0.006310
     38 N3          2.1220   -5.0450   -1.3780 n         1 MOL     -0.624203
     39 C13         3.3120   -4.3950   -0.7110 c3        1 MOL     -0.038111
     40 C14         3.8310   -3.2420   -1.5450 c         1 MOL      0.553944
     41 O6          4.2870   -2.2250   -0.9810 o         1 MOL     -0.529541
     42 C15         4.4660   -5.3940   -0.4770 c3        1 MOL     -0.240200
     43 C16         4.8730   -6.2120   -1.7090 c         1 MOL      0.649014
     44 O7          5.8380   -5.8890   -2.4820 o         1 MOL     -0.678092
     45 O8          4.2380   -7.2830   -2.0030 o         1 MOL     -0.678092
     46 H19         2.2290   -5.4670   -2.3030 hn        1 MOL      0.318885
     47 H20         2.9340   -4.0720    0.2560 h1        1 MOL      0.041339
     48 H21         4.0640   -6.1140    0.2320 hc        1 MOL      0.069763
     49 H22         5.3280   -4.8850   -0.0680 hc        1 MOL      0.069763
     50 N4          3.7490   -3.3920   -2.8830 n         1 MOL     -0.298997
     51 C17         4.0590   -2.3140   -3.8020 c3        1 MOL     -0.285434
     52 C18         5.5600   -2.1240   -3.9350 c         1 MOL      0.588894
     53 O9          6.1480   -2.8660   -4.6520 o         1 MOL     -0.549393
     54 H23         3.4920   -4.2740   -3.2910 hn        1 MOL      0.356145
     55 H24         3.6370   -1.3890   -3.4220 h1        1 MOL      0.118639
     56 H25         3.5970   -2.5440   -4.7590 h1        1 MOL      0.118639
     57 N5          6.1170   -1.2100   -3.1840 n         1 MOL     -0.352084
     58 C19         7.5070   -0.7980   -3.2780 c3        1 MOL      0.146483
     59 C20         8.2360   -0.8680   -1.9010 c         1 MOL      0.432560
     60 O10         9.4340   -0.7440   -1.7330 o         1 MOL     -0.542680
     61 C21         7.4670    0.6750   -3.7190 c3        1 MOL     -0.439530
     62 C22         6.5730    1.6170   -2.8590 c         1 MOL      0.759607
     63 O11         6.4110    2.8070   -3.2340 o         1 MOL     -0.695436
     64 O12         6.0330    1.2560   -1.7810 o         1 MOL     -0.695436
     65 H26         5.5600   -0.4790   -2.7660 hn        1 MOL      0.244747
     66 H27         8.0570   -1.4870   -3.9210 h1        1 MOL      0.060727
     67 H28         7.1580    0.5880   -4.7580 hc        1 MOL      0.100398
     68 H29         8.5010    1.0340   -3.7070 hc        1 MOL      0.100398
     69 N6          7.4340   -1.1370   -0.8410 n         1 MOL     -0.273883
     70 C23         7.9700   -1.2200    0.5590 c3        1 MOL     -0.167369
     71 C24         8.0320    0.1360    1.2680 c         1 MOL      0.516333
     72 O13         8.3780    0.2410    2.4230 o         1 MOL     -0.596160
     73 H30         6.5050   -1.5100   -0.9950 hn        1 MOL      0.212843
     74 H31         9.0120   -1.5380    0.4730 h1        1 MOL      0.099431
     75 H32         7.4610   -1.9890    1.1310 h1        1 MOL      0.099431
     76 N7          7.8210    1.1410    0.4490 n         1 MOL     -0.273244
     77 C25         7.6580    2.5760    0.8580 c3        1 MOL      0.142920
     78 C26         6.6870    2.9530    1.9750 c         1 MOL      0.423193
     79 O14         6.8210    3.9790    2.6030 o         1 MOL     -0.523530
     80 C27         8.9830    3.2380    0.9940 c3        1 MOL      0.041648
     81 C28         9.6590    3.3840   -0.3670 c3        1 MOL     -0.238356
     82 C29        10.9930    4.1250   -0.3090 c         1 MOL      0.746321
     83 N8         11.0480    5.3270    0.2830 n         1 MOL     -0.886516
     84 O15        12.0260    3.6860   -0.7720 o         1 MOL     -0.591931
     85 H33         7.5490    0.9320   -0.5110 hn        1 MOL      0.256654
     86 H34         7.1050    2.9380   -0.0120 h1        1 MOL      0.063365
     87 H35         9.6480    2.7770    1.7320 hc        1 MOL     -0.003181
     88 H36         8.8010    4.2390    1.3920 hc        1 MOL     -0.003181
     89 H37         9.0290    4.1200   -0.8840 hc        1 MOL      0.065984
     90 H38         9.7820    2.4290   -0.8770 hc        1 MOL      0.065984
     91 H39        10.2110    5.7550    0.6600 hn        1 MOL      0.369842
     92 H40        11.9390    5.8030    0.4030 hn        1 MOL      0.369842
     93 N9          5.6660    2.1260    2.1880 n         1 MOL     -0.340339
     94 C30         4.8670    2.2380    3.4590 c3        1 MOL     -0.043255
     95 C31         3.3460    1.8970    3.3620 c         1 MOL      0.558702
     96 O16         2.5630    2.2390    4.2490 o         1 MOL     -0.543958
     97 C32         5.4520    1.3320    4.5360 c3        1 MOL      0.335733
     98 C33         5.1810    1.7200    5.9660 c3        1 MOL     -0.450418
     99 C34         4.9870   -0.1500    4.4830 c3        1 MOL     -0.450418
    100 H41         5.4350    1.5230    1.4160 hn        1 MOL      0.187839
    101 H42         4.9380    3.2680    3.8170 h1        1 MOL      0.095307
    102 H43         6.5340    1.3020    4.4310 hc        1 MOL      0.003280
    103 H44         5.4540    2.7440    6.1890 hc        1 MOL      0.100846
    104 H45         4.1020    1.7390    6.0810 hc        1 MOL      0.100846
    105 H46         5.5870    1.0700    6.7300 hc        1 MOL      0.100846
    106 H47         5.4890   -0.7000    5.2800 hc        1 MOL      0.100846
    107 H48         3.9300   -0.2980    4.6850 hc        1 MOL      0.100846
    108 H49         5.2380   -0.4480    3.4700 hc        1 MOL      0.100846
    109 N10         2.9710    1.2550    2.2690 n         1 MOL     -0.515885
    110 C35         1.5590    1.0220    1.9240 c3        1 MOL      0.120163
    111 C36         1.1100    1.9260    0.7830 c         1 MOL      0.539823
    112 O17         1.8500    2.2030   -0.1680 o         1 MOL     -0.536490
    113 C37         1.4500   -0.4400    1.5420 c3        1 MOL      0.030747
    114 C38         1.8210   -1.2510    2.6860 c         1 MOL      0.520248
    115 N11         2.8780   -2.0130    2.5310 n         1 MOL     -0.508789
    116 O18         1.3620   -1.0730    3.7720 o         1 MOL     -0.559979
    117 H50         3.6120    0.9890    1.5310 hn        1 MOL      0.326893
    118 H51         0.7910    1.2380    2.6740 h1        1 MOL      0.074873
    119 H52         1.9520   -0.6210    0.5900 hc        1 MOL      0.002788
    120 H53         0.3910   -0.6770    1.4910 hc        1 MOL      0.002788
    121 H54         3.3020   -1.9980    1.6200 hn        1 MOL      0.274082
    122 H55         3.2640   -2.5540    3.2930 hn        1 MOL      0.274082
    123 N12        -0.1660    2.1600    0.7290 n         1 MOL     -0.488974
    124 C39        -1.0150    2.6540   -0.3320 c3        1 MOL      0.202708
    125 C40        -2.1870    3.4530    0.2160 c         1 MOL      0.616637
    126 O19        -2.5020    3.3440    1.3860 o         1 MOL     -0.603960
    127 C41        -1.4460    1.4450   -1.2430 c3        1 MOL     -0.225202
    128 C42        -2.3870    1.7490   -2.3640 ca        1 MOL      0.145345
    129 C43        -3.6150    1.1430   -2.3960 ca        1 MOL     -0.225133
    130 C44        -1.9260    2.5120   -3.4420 ca        1 MOL     -0.225133
    131 C45        -4.5050    1.5520   -3.3630 ca        1 MOL     -0.222119
    132 C46        -2.7150    2.7300   -4.5640 ca        1 MOL     -0.222119
    133 C47        -4.0660    2.3360   -4.4850 ca        1 MOL      0.327088
    134 O20        -4.9110    2.4700   -5.5380 oh        1 MOL     -0.502708
    135 H56        -0.6630    1.8470    1.5500 hn        1 MOL      0.265026
    136 H57        -0.4590    3.3100   -1.0060 h1        1 MOL      0.029455
    137 H58        -1.8750    0.6940   -0.5810 hc        1 MOL      0.092772
    138 H59        -0.5870    0.9000   -1.6400 hc        1 MOL      0.092772
    139 H60        -4.0310    0.6060   -1.5630 ha        1 MOL      0.161101
    140 H61        -0.9090    2.8720   -3.4130 ha        1 MOL      0.161101
    141 H62        -5.5000    1.1460   -3.3540 ha        1 MOL      0.152469
    142 H63        -2.2620    3.1100   -5.4670 ha        1 MOL      0.152469
    143 H64        -5.7440    2.0790   -5.2740 ho        1 MOL      0.359827
    144 N13        -2.8280    4.1880   -0.6390 n         1 MOL     -0.639598
    145 C48        -3.8920    5.1180   -0.2470 c3        1 MOL      0.163477
    146 C49        -5.0970    4.9320   -1.2190 c         1 MOL      0.729883
    147 O21        -5.1040    5.4160   -2.3410 o         1 MOL     -0.559651
    148 C50        -3.4070    6.6160   -0.3150 c3        1 MOL      0.099526
    149 C51        -4.4820    7.6240    0.1030 c3        1 MOL     -0.251923
    150 C52        -4.2490    8.9760   -0.6200 c         1 MOL      0.694663
    151 O22        -5.0690    9.2700   -1.5230 o         1 MOL     -0.675923
    152 O23        -3.2820    9.7380   -0.3580 o         1 MOL     -0.675923
    153 H65        -2.5030    4.1310   -1.5940 hn        1 MOL      0.313971
    154 H66        -4.2790    5.0130    0.7680 h1        1 MOL      0.061551
    155 H67        -2.9940    6.7780   -1.3080 hc        1 MOL     -0.003149
    156 H68        -2.5170    6.8280    0.2770 hc        1 MOL     -0.003149
    157 H69        -4.2970    7.8140    1.1620 hc        1 MOL      0.026013
    158 H70        -5.4860    7.2290   -0.0810 hc        1 MOL      0.026013
    159 N14        -6.0870    4.0360   -0.9200 n         1 MOL     -0.685728
    160 C53        -6.0580    2.9980    0.1380 c3        1 MOL      0.033580
    161 C54        -6.4040    3.5250    1.5660 c         1 MOL      0.450512
    162 O24        -6.9580    4.6070    1.6000 o         1 MOL     -0.526277
    163 C55        -6.7440    1.6690   -0.3310 c3        1 MOL      0.464352
    164 C56        -8.2970    1.6290   -0.1300 c3        1 MOL     -0.137504
    165 C57        -8.8710    0.3640   -0.7760 c         1 MOL      0.595929
    166 O25        -9.2330   -0.5190    0.0090 o         1 MOL     -0.658754
    167 O26        -8.9200    0.2660   -2.0020 o         1 MOL     -0.658754
    168 H71        -6.9170    4.1070   -1.4890 hn        1 MOL      0.342347
    169 H72        -5.0320    2.6520    0.2550 h1        1 MOL      0.038235
    170 H73        -6.3290    0.8810    0.2950 hc        1 MOL     -0.127137
    171 H74        -6.4760    1.4510   -1.3700 hc        1 MOL     -0.127137
    172 H75        -8.7170    2.5590   -0.4940 hc        1 MOL     -0.017031
    173 H76        -8.4890    1.5840    0.9460 hc        1 MOL     -0.017031
    174 N15        -5.9880    2.8690    2.6160 n         1 MOL     -0.180751
    175 C58        -6.2730    3.1760    4.0150 c3        1 MOL     -0.391189
    176 H77        -6.2790    4.2570    4.1550 h1        1 MOL      0.141899
    177 H78        -7.2480    2.7700    4.2840 h1        1 MOL      0.141899
    178 H79        -5.5050    2.7320    4.6490 h1        1 MOL      0.141899
    179 H80        -5.4830    2.0140    2.4170 hn        1 MOL      0.237207
    180 Ca1        -8.4980   -2.8850    0.4070 Ca        1 MOL      1.766014
    181 O27        -9.8780   -2.4180   -2.0050 oh        1 MOL     -0.835454
    182 H81        -9.5030   -1.5330   -2.0000 ho        1 MOL      0.390046
    183 H82        -9.9900   -2.6200   -2.9290 ho        1 MOL      0.390046
    184 O28       -11.2930   -2.8030    0.3840 oh        1 MOL     -0.835454
    185 O29        -9.7440   -4.7130    2.2210 oh        1 MOL     -0.835454
    186 H83       -11.6620   -3.2800   -0.3600 ho        1 MOL      0.390046
    187 H84       -10.1950   -4.3510    2.9850 ho        1 MOL      0.390046
    188 H85       -11.6490   -1.9260    0.3090 ho        1 MOL      0.390046
    189 H86       -10.2060   -5.5270    2.0430 ho        1 MOL      0.390046
    190 O30        -9.0790   -4.9870   -0.9310 oh        1 MOL     -0.835454
    191 H87        -9.9710   -4.8880   -1.2690 ho        1 MOL      0.390046
    192 H88        -8.7390   -5.7670   -1.3580 ho        1 MOL      0.390046
    193 O31        -8.4700   -1.5740    2.7600 oh        1 MOL     -0.835454
    194 H89        -8.9060   -0.7410    2.9630 ho        1 MOL      0.390046
    195 H90        -7.7170   -1.6010    3.3520 ho        1 MOL      0.390046
@<TRIPOS>BOND
     1    1    2 1   
     2    1    4 1   
     3    1    5 1   
     4    1    6 1   
     5    2    3 2   
     6    2    7 1   
     7    7    8 1   
     8    7   15 1   
     9    8    9 1   
    10    8   11 1   
    11    8   16 1   
    12    9   10 2   
    13    9   19 1   
    14   11   12 1   
    15   11   17 1   
    16   11   18 1   
    17   12   13 1   
    18   12   14 1   
    19   19   20 1   
    20   19   27 1   
    21   20   21 1   
    22   20   23 1   
    23   20   28 1   
    24   21   22 2   
    25   21   38 1   
    26   23   24 1   
    27   23   25 1   
    28   23   29 1   
    29   24   26 1   
    30   24   30 1   
    31   24   31 1   
    32   25   32 1   
    33   25   33 1   
    34   25   34 1   
    35   26   35 1   
    36   26   36 1   
    37   26   37 1   
    38   38   39 1   
    39   38   46 1   
    40   39   40 1   
    41   39   42 1   
    42   39   47 1   
    43   40   41 2   
    44   40   50 1   
    45   42   43 1   
    46   42   48 1   
    47   42   49 1   
    48   43   44 1   
    49   43   45 1   
    50   50   51 1   
    51   50   54 1   
    52   51   52 1   
    53   51   55 1   
    54   51   56 1   
    55   52   53 2   
    56   52   57 1   
    57   57   58 1   
    58   57   65 1   
    59   58   59 1   
    60   58   61 1   
    61   58   66 1   
    62   59   60 2   
    63   59   69 1   
    64   61   62 1   
    65   61   67 1   
    66   61   68 1   
    67   62   63 1   
    68   62   64 1   
    69   69   70 1   
    70   69   73 1   
    71   70   71 1   
    72   70   74 1   
    73   70   75 1   
    74   71   72 2   
    75   71   76 1   
    76   76   77 1   
    77   76   85 1   
    78   77   78 1   
    79   77   80 1   
    80   77   86 1   
    81   78   79 2   
    82   78   93 1   
    83   80   81 1   
    84   80   87 1   
    85   80   88 1   
    86   81   82 1   
    87   81   89 1   
    88   81   90 1   
    89   82   83 1   
    90   82   84 2   
    91   83   91 1   
    92   83   92 1   
    93   93   94 1   
    94   93  100 1   
    95   94   95 1   
    96   94   97 1   
    97   94  101 1   
    98   95   96 2   
    99   95  109 1   
   100   97   98 1   
   101   97   99 1   
   102   97  102 1   
   103   98  103 1   
   104   98  104 1   
   105   98  105 1   
   106   99  106 1   
   107   99  107 1   
   108   99  108 1   
   109  109  110 1   
   110  109  117 1   
   111  110  111 1   
   112  110  113 1   
   113  110  118 1   
   114  111  112 2   
   115  111  123 1   
   116  113  114 1   
   117  113  119 1   
   118  113  120 1   
   119  114  115 1   
   120  114  116 2   
   121  115  121 1   
   122  115  122 1   
   123  123  124 1   
   124  123  135 1   
   125  124  125 1   
   126  124  127 1   
   127  124  136 1   
   128  125  126 2   
   129  125  144 1   
   130  127  128 1   
   131  127  137 1   
   132  127  138 1   
   133  128  129 ar  
   134  128  130 ar  
   135  129  131 ar  
   136  129  139 1   
   137  130  132 ar  
   138  130  140 1   
   139  131  133 ar  
   140  131  141 1   
   141  132  133 ar  
   142  132  142 1   
   143  133  134 1   
   144  134  143 1   
   145  144  145 1   
   146  144  153 1   
   147  145  146 1   
   148  145  148 1   
   149  145  154 1   
   150  146  147 2   
   151  146  159 1   
   152  148  149 1   
   153  148  155 1   
   154  148  156 1   
   155  149  150 1   
   156  149  157 1   
   157  149  158 1   
   158  150  151 1   
   159  150  152 1   
   160  159  160 1   
   161  159  168 1   
   162  160  161 1   
   163  160  163 1   
   164  160  169 1   
   165  161  162 2   
   166  161  174 1   
   167  163  164 1   
   168  163  170 1   
   169  163  171 1   
   170  164  165 1   
   171  164  172 1   
   172  164  173 1   
   173  165  166 1   
   174  165  167 1   
   175  174  175 1   
   176  174  179 1   
   177  175  176 1   
   178  175  177 1   
   179  175  178 1   
   180  181  182 1   
   181  181  183 1   
   182  184  186 1   
   183  184  188 1   
   184  185  187 1   
   185  185  189 1   
   186  190  191 1   
   187  190  192 1   
   188  193  194 1   
   189  193  195 1   
@<TRIPOS>SUBSTRUCTURE
     1 MOL         1 TEMP              0 ****  ****    0 ROOT
