@<TRIPOS>MOLECULE
MOL
  195   189     1     0     0
SMALL
resp


@<TRIPOS>ATOM
      1 C1         -3.5450   -5.0250    1.7310 c3        1 MOL     -0.122918
      2 C2         -2.3870   -4.2540    1.0570 c         1 MOL      0.586918
      3 O1         -1.8360   -3.2670    1.6330 o         1 MOL     -0.491999
      4 H1         -3.8890   -4.4720    2.6050 hc        1 MOL      0.013348
      5 H2         -4.3680   -5.1360    1.0250 hc        1 MOL      0.013348
      6 H3         -3.1950   -6.0110    2.0410 hc        1 MOL      0.013348
      7 N1         -2.2320   -4.5570   -0.2140 n         1 MOL     -0.449442
      8 C3         -1.3510   -3.8920   -1.1890 c3        1 MOL      0.120155
      9 C4          0.0810   -3.6360   -0.7640 c         1 MOL      0.516753
     10 O2          0.7980   -2.7710   -1.3130 o         1 MOL     -0.550565
     11 C5         -2.0870   -2.6590   -1.8130 c3        1 MOL     -0.468059
     12 C6         -3.5560   -2.9490   -2.1550 c         1 MOL      0.902596
     13 O3         -3.8570   -3.9960   -2.7080 o         1 MOL     -0.811239
     14 O4         -4.4740   -2.1890   -1.8090 o         1 MOL     -0.811239
     15 H4         -2.7890   -5.2670   -0.6590 hn        1 MOL      0.256240
     16 H5         -1.2140   -4.6010   -2.0030 h1        1 MOL      0.059780
     17 H6         -1.6240   -2.1580   -2.6560 hc        1 MOL      0.166016
     18 H7         -2.1590   -1.9330   -1.0030 hc        1 MOL      0.166016
     19 N2          0.6280   -4.3180    0.2900 n         1 MOL     -0.443383
     20 C7          1.9730   -4.2160    0.8850 c3        1 MOL      0.085680
     21 C8          2.8530   -5.2930    0.3020 c         1 MOL      0.545478
     22 O5          2.4380   -6.4610    0.1590 o         1 MOL     -0.608043
     23 C9          1.8450   -4.4810    2.4050 c3        1 MOL      0.367940
     24 C10         1.0670   -5.7660    2.8430 c3        1 MOL      0.088651
     25 C11         1.1810   -3.2130    3.0640 c3        1 MOL     -0.247249
     26 C12         0.6450   -5.9380    4.2870 c3        1 MOL     -0.153572
     27 H8         -0.0110   -4.9880    0.7020 hn        1 MOL      0.133968
     28 H9          2.3740   -3.2250    0.6790 h1        1 MOL      0.133158
     29 H10         2.8380   -4.6200    2.8280 hc        1 MOL     -0.083074
     30 H11         1.6220   -6.6440    2.5090 hc        1 MOL     -0.009309
     31 H12         0.1120   -5.7520    2.3170 hc        1 MOL     -0.009309
     32 H13         0.1010   -3.3210    2.9920 hc        1 MOL      0.049075
     33 H14         1.5230   -3.1880    4.1020 hc        1 MOL      0.049075
     34 H15         1.5470   -2.3140    2.5660 hc        1 MOL      0.049075
     35 H16        -0.0420   -6.7750    4.1860 hc        1 MOL      0.017872
     36 H17         1.4040   -6.3040    4.9750 hc        1 MOL      0.017872
     37 H18         0.1210   -5.0900    4.7270 hc        1 MOL      0.017872
     38 N3          4.1440   -5.0000    0.0170 n         1 MOL     -0.570265
     39 C13         4.8990   -3.6720    0.1810 c3        1 MOL      0.034239
     40 C14         6.0230   -3.4870   -0.8430 c         1 MOL      0.451798
     41 O6          6.2050   -2.3460   -1.2050 o         1 MOL     -0.469277
     42 C15         5.5060   -3.5650    1.6320 c3        1 MOL      0.058164
     43 C16         5.9330   -4.9120    2.1570 c         1 MOL      0.598983
     44 O7          7.1610   -5.2190    2.0870 o         1 MOL     -0.676148
     45 O8          5.0300   -5.6420    2.7050 o         1 MOL     -0.676148
     46 H19         4.6060   -5.8270   -0.3600 hn        1 MOL      0.308819
     47 H20         4.1880   -2.8410    0.0820 h1        1 MOL      0.027976
     48 H21         4.7430   -3.0930    2.2430 hc        1 MOL     -0.037565
     49 H22         6.4410   -3.0010    1.5920 hc        1 MOL     -0.037565
     50 N4          6.7410   -4.4500   -1.3700 n         1 MOL     -0.263144
     51 C17         7.8090   -4.2410   -2.3870 c3        1 MOL     -0.219626
     52 C18         8.8790   -3.4190   -1.6630 c         1 MOL      0.561935
     53 O9          9.5580   -3.9450   -0.8000 o         1 MOL     -0.537148
     54 H23         6.4320   -5.4040   -1.2320 hn        1 MOL      0.275307
     55 H24         7.3700   -3.6660   -3.2030 h1        1 MOL      0.102071
     56 H25         8.2880   -5.1390   -2.7620 h1        1 MOL      0.102071
     57 N5          9.0360   -2.0880   -1.9640 n         1 MOL     -0.490744
     58 C19         9.8800   -1.0470   -1.2050 c3        1 MOL      0.173163
     59 C20         9.2350   -0.4560    0.0590 c         1 MOL      0.310996
     60 O10         9.9060    0.1650    0.8460 o         1 MOL     -0.553364
     61 C21        10.3130    0.0780   -2.1680 c3        1 MOL     -0.414225
     62 C22         9.2170    0.3940   -3.0890 c         1 MOL      0.732662
     63 O11         8.2690    1.2000   -2.7660 o         1 MOL     -0.726458
     64 O12         9.2040   -0.2710   -4.1800 o         1 MOL     -0.726458
     65 H26         8.4900   -1.7660   -2.7510 hn        1 MOL      0.313181
     66 H27        10.8080   -1.5710   -0.9860 h1        1 MOL      0.073612
     67 H28        11.1380   -0.3040   -2.7760 hc        1 MOL      0.095037
     68 H29        10.5850    1.0060   -1.6710 hc        1 MOL      0.095037
     69 N6          7.9370   -0.5680    0.1970 n         1 MOL      0.066985
     70 C23         7.1700   -0.1200    1.3900 c3        1 MOL     -0.233060
     71 C24         6.8390    1.3550    1.3880 c         1 MOL      0.404231
     72 O13         6.3940    1.8420    2.4140 o         1 MOL     -0.492954
     73 H30         7.4170   -1.0400   -0.5310 hn        1 MOL      0.106570
     74 H31         7.6480   -0.4110    2.3240 h1        1 MOL      0.125350
     75 H32         6.2330   -0.6800    1.4710 h1        1 MOL      0.125350
     76 N7          7.1710    2.0660    0.2870 n         1 MOL     -0.066235
     77 C25         6.8090    3.4340    0.0120 c3        1 MOL     -0.144589
     78 C26         5.3400    3.7670    0.4120 c         1 MOL      0.449629
     79 O14         5.0780    4.8190    0.9810 o         1 MOL     -0.564893
     80 C27         7.8120    4.4170    0.6310 c3        1 MOL      0.079298
     81 C28         9.2240    4.5490    0.0880 c3        1 MOL     -0.231799
     82 C29        10.0940    5.4490    0.9510 c         1 MOL      0.664340
     83 N8         10.9420    6.2820    0.3600 n         1 MOL     -0.780386
     84 O15         9.9320    5.5260    2.1770 o         1 MOL     -0.561158
     85 H33         7.4940    1.5410   -0.5160 hn        1 MOL      0.167871
     86 H34         6.9090    3.5170   -1.0610 h1        1 MOL      0.107338
     87 H35         7.9190    4.2000    1.6950 hc        1 MOL      0.028649
     88 H36         7.4830    5.4490    0.5800 hc        1 MOL      0.028649
     89 H37         9.1850    4.8930   -0.9450 hc        1 MOL      0.059532
     90 H38         9.6920    3.5630    0.1140 hc        1 MOL      0.059532
     91 H39        11.0590    6.2540   -0.6460 hn        1 MOL      0.337435
     92 H40        11.5780    6.8110    0.9340 hn        1 MOL      0.337435
     93 N9          4.4070    2.8170    0.2950 n         1 MOL     -0.257857
     94 C30         2.9420    2.9440    0.6960 c3        1 MOL      0.014738
     95 C31         2.2230    3.2490   -0.6300 c         1 MOL      0.544511
     96 O16         2.6190    2.8320   -1.7160 o         1 MOL     -0.472210
     97 C32         2.5310    1.7310    1.5930 c3        1 MOL      0.229804
     98 C33         3.0140    0.3070    1.2100 c3        1 MOL     -0.067309
     99 C34         2.9070    1.9010    3.1310 c3        1 MOL     -0.067309
    100 H41         4.7000    2.0220   -0.2430 hn        1 MOL      0.161303
    101 H42         2.7370    3.8150    1.3250 h1        1 MOL      0.051694
    102 H43         1.4530    1.6620    1.4560 hc        1 MOL     -0.032501
    103 H44         4.0350    0.1460    1.5460 hc        1 MOL      0.008266
    104 H45         2.3660   -0.4860    1.5820 hc        1 MOL      0.008266
    105 H46         2.9300    0.2510    0.1260 hc        1 MOL      0.008266
    106 H47         2.6020    0.9380    3.5420 hc        1 MOL      0.008266
    107 H48         3.9440    2.0300    3.4470 hc        1 MOL      0.008266
    108 H49         2.2500    2.6540    3.5760 hc        1 MOL      0.008266
    109 N10         1.0140    3.8820   -0.5180 n         1 MOL     -0.558941
    110 C35         0.0970    4.2880   -1.5610 c3        1 MOL      0.175201
    111 C36        -1.3100    4.4400   -1.0010 c         1 MOL      0.694851
    112 O17        -1.3790    5.0260    0.0910 o         1 MOL     -0.574206
    113 C37         0.4620    5.7210   -2.0660 c3        1 MOL     -0.393489
    114 C38         1.8760    5.9080   -2.5920 c         1 MOL      0.674167
    115 N11         2.7750    6.3910   -1.7220 n         1 MOL     -0.819982
    116 O18         2.2190    5.5410   -3.6840 o         1 MOL     -0.540009
    117 H50         0.7120    4.1770    0.4000 hn        1 MOL      0.298793
    118 H51         0.0950    3.5320   -2.3490 h1        1 MOL      0.073610
    119 H52         0.3600    6.4830   -1.2990 hc        1 MOL      0.092347
    120 H53        -0.1580    6.0090   -2.9190 hc        1 MOL      0.092347
    121 H54         2.5220    6.4940   -0.7500 hn        1 MOL      0.376996
    122 H55         3.7090    6.6080   -2.0360 hn        1 MOL      0.376996
    123 N12        -2.3450    3.9680   -1.6950 n         1 MOL     -0.747698
    124 C39        -3.7480    4.2860   -1.3290 c3        1 MOL      0.392388
    125 C40        -4.2790    3.3120   -0.2230 c         1 MOL      0.625527
    126 O19        -4.0450    2.0770   -0.3460 o         1 MOL     -0.551801
    127 C41        -4.4580    4.1540   -2.6730 c3        1 MOL     -0.165199
    128 C42        -5.9510    4.3900   -2.5400 ca        1 MOL      0.070115
    129 C43        -6.5440    5.6150   -2.8600 ca        1 MOL     -0.236254
    130 C44        -6.7760    3.3760   -1.9920 ca        1 MOL     -0.236254
    131 C45        -7.8850    5.8820   -2.6660 ca        1 MOL     -0.142755
    132 C46        -8.1670    3.5790   -1.8260 ca        1 MOL     -0.142755
    133 C47        -8.7110    4.7580   -2.2310 ca        1 MOL      0.220527
    134 O20       -10.0250    5.0110   -2.0290 oh        1 MOL     -0.504171
    135 H56        -2.1410    3.5700   -2.6030 hn        1 MOL      0.339114
    136 H57        -3.8510    5.3060   -0.9570 h1        1 MOL     -0.018019
    137 H58        -4.2480    3.1290   -2.9690 hc        1 MOL      0.064879
    138 H59        -4.0450    4.8400   -3.4210 hc        1 MOL      0.064879
    139 H60        -5.8880    6.3710   -3.2580 ha        1 MOL      0.127279
    140 H61        -6.3910    2.3990   -1.7530 ha        1 MOL      0.127279
    141 H62        -8.3760    6.7980   -2.9380 ha        1 MOL      0.124857
    142 H63        -8.6730    2.7900   -1.2900 ha        1 MOL      0.124857
    143 H64       -10.4320    4.1900   -1.7500 ho        1 MOL      0.382743
    144 N13        -5.0350    3.7670    0.7760 n         1 MOL     -0.683979
    145 C48        -5.5400    2.8960    1.8890 c3        1 MOL      0.298789
    146 C49        -7.0160    3.0200    2.1670 c         1 MOL      0.589438
    147 O21        -7.6190    4.0560    2.0070 o         1 MOL     -0.583296
    148 C50        -4.6300    3.1700    3.1420 c3        1 MOL      0.005110
    149 C51        -4.5400    2.0020    4.1950 c3        1 MOL     -0.303596
    150 C52        -3.5360    2.3080    5.3710 c         1 MOL      0.722781
    151 O22        -2.3350    1.9350    5.1750 o         1 MOL     -0.679361
    152 O23        -3.8680    2.6800    6.5060 o         1 MOL     -0.679361
    153 H65        -5.3320    4.7260    0.8080 hn        1 MOL      0.314464
    154 H66        -5.3850    1.8660    1.5700 h1        1 MOL      0.076189
    155 H67        -5.0430    4.0790    3.5820 hc        1 MOL      0.008540
    156 H68        -3.6580    3.5300    2.8040 hc        1 MOL      0.008540
    157 H69        -4.2660    1.0920    3.6450 hc        1 MOL      0.058444
    158 H70        -5.5590    1.9390    4.5840 hc        1 MOL      0.058444
    159 N14        -7.7870    2.0280    2.6080 n         1 MOL     -0.442389
    160 C53        -7.6370    0.5280    2.8000 c3        1 MOL     -0.079885
    161 C54        -8.2100   -0.0610    4.1040 c         1 MOL      0.556738
    162 O24        -9.2460    0.3840    4.5760 o         1 MOL     -0.533915
    163 C55        -8.0800   -0.3430    1.6260 c3        1 MOL     -0.043916
    164 C56        -7.6080    0.1580    0.2020 c3        1 MOL     -0.067666
    165 C57        -7.9290   -0.9450   -0.7930 c         1 MOL      0.785322
    166 O25        -8.7050   -0.7460   -1.7800 o         1 MOL     -0.781443
    167 O26        -7.4100   -2.1120   -0.6410 o         1 MOL     -0.781443
    168 H71        -8.7510    2.3230    2.6560 hn        1 MOL      0.271202
    169 H72        -6.5620    0.4030    2.9430 h1        1 MOL      0.025114
    170 H73        -9.1700   -0.3490    1.6470 hc        1 MOL      0.021336
    171 H74        -7.9180   -1.4080    1.7710 hc        1 MOL      0.021336
    172 H75        -6.5400    0.3580    0.2180 hc        1 MOL      0.042132
    173 H76        -8.1320    1.0640   -0.1120 hc        1 MOL      0.042132
    174 N15        -7.6320   -1.1930    4.6450 n         1 MOL     -0.349159
    175 C58        -7.9300   -1.9360    5.8970 c3        1 MOL     -0.078939
    176 H77        -7.0070   -2.0930    6.4550 h1        1 MOL      0.070285
    177 H78        -8.6270   -1.3590    6.5040 h1        1 MOL      0.070285
    178 H79        -8.3730   -2.9010    5.6510 h1        1 MOL      0.070285
    179 H80        -6.7470   -1.3900    4.1850 hn        1 MOL      0.269572
    180 Ca1        -6.4080   -3.7530   -2.5030 Ca        1 MOL      1.737436
    181 O27        -8.6670   -5.1890   -1.4930 oh        1 MOL     -0.805418
    182 H81        -9.2350   -4.9790   -0.7510 ho        1 MOL      0.384797
    183 H82        -9.1670   -5.8410   -1.9850 ho        1 MOL      0.384797
    184 O28        -5.7230   -3.3930   -5.5180 oh        1 MOL     -0.805418
    185 H83        -5.6280   -2.4700   -5.7440 ho        1 MOL      0.384797
    186 H84        -6.4570   -3.7010   -6.0620 ho        1 MOL      0.384797
    187 O29        -6.1410   -6.1930   -3.8270 oh        1 MOL     -0.805418
    188 H85        -5.6320   -6.8740   -3.3790 ho        1 MOL      0.384797
    189 H86        -5.8410   -6.2310   -4.7380 ho        1 MOL      0.384797
    190 O30        -7.0510   -1.3890   -3.6230 oh        1 MOL     -0.805418
    191 H87        -7.6480   -0.9890   -2.9990 ho        1 MOL      0.384797
    192 H88        -6.8060   -0.6750   -4.2160 ho        1 MOL      0.384797
    193 O31        -8.3070   -4.4900   -4.3290 oh        1 MOL     -0.805418
    194 H89        -8.4580   -5.4280   -4.4340 ho        1 MOL      0.384797
    195 H90        -9.1040   -4.0720   -4.6430 ho        1 MOL      0.384797
@<TRIPOS>BOND
     1    1    2 1   
     2    1    4 1   
     3    1    5 1   
     4    1    6 1   
     5    2    3 2   
     6    2    7 1   
     7    7    8 1   
     8    7   15 1   
     9    8    9 1   
    10    8   11 1   
    11    8   16 1   
    12    9   10 2   
    13    9   19 1   
    14   11   12 1   
    15   11   17 1   
    16   11   18 1   
    17   12   13 1   
    18   12   14 1   
    19   19   20 1   
    20   19   27 1   
    21   20   21 1   
    22   20   23 1   
    23   20   28 1   
    24   21   22 2   
    25   21   38 1   
    26   23   24 1   
    27   23   25 1   
    28   23   29 1   
    29   24   26 1   
    30   24   30 1   
    31   24   31 1   
    32   25   32 1   
    33   25   33 1   
    34   25   34 1   
    35   26   35 1   
    36   26   36 1   
    37   26   37 1   
    38   38   39 1   
    39   38   46 1   
    40   39   40 1   
    41   39   42 1   
    42   39   47 1   
    43   40   41 2   
    44   40   50 1   
    45   42   43 1   
    46   42   48 1   
    47   42   49 1   
    48   43   44 1   
    49   43   45 1   
    50   50   51 1   
    51   50   54 1   
    52   51   52 1   
    53   51   55 1   
    54   51   56 1   
    55   52   53 2   
    56   52   57 1   
    57   57   58 1   
    58   57   65 1   
    59   58   59 1   
    60   58   61 1   
    61   58   66 1   
    62   59   60 2   
    63   59   69 1   
    64   61   62 1   
    65   61   67 1   
    66   61   68 1   
    67   62   63 1   
    68   62   64 1   
    69   69   70 1   
    70   69   73 1   
    71   70   71 1   
    72   70   74 1   
    73   70   75 1   
    74   71   72 2   
    75   71   76 1   
    76   76   77 1   
    77   76   85 1   
    78   77   78 1   
    79   77   80 1   
    80   77   86 1   
    81   78   79 2   
    82   78   93 1   
    83   80   81 1   
    84   80   87 1   
    85   80   88 1   
    86   81   82 1   
    87   81   89 1   
    88   81   90 1   
    89   82   83 1   
    90   82   84 2   
    91   83   91 1   
    92   83   92 1   
    93   93   94 1   
    94   93  100 1   
    95   94   95 1   
    96   94   97 1   
    97   94  101 1   
    98   95   96 2   
    99   95  109 1   
   100   97   98 1   
   101   97   99 1   
   102   97  102 1   
   103   98  103 1   
   104   98  104 1   
   105   98  105 1   
   106   99  106 1   
   107   99  107 1   
   108   99  108 1   
   109  109  110 1   
   110  109  117 1   
   111  110  111 1   
   112  110  113 1   
   113  110  118 1   
   114  111  112 2   
   115  111  123 1   
   116  113  114 1   
   117  113  119 1   
   118  113  120 1   
   119  114  115 1   
   120  114  116 2   
   121  115  121 1   
   122  115  122 1   
   123  123  124 1   
   124  123  135 1   
   125  124  125 1   
   126  124  127 1   
   127  124  136 1   
   128  125  126 2   
   129  125  144 1   
   130  127  128 1   
   131  127  137 1   
   132  127  138 1   
   133  128  129 ar  
   134  128  130 ar  
   135  129  131 ar  
   136  129  139 1   
   137  130  132 ar  
   138  130  140 1   
   139  131  133 ar  
   140  131  141 1   
   141  132  133 ar  
   142  132  142 1   
   143  133  134 1   
   144  134  143 1   
   145  144  145 1   
   146  144  153 1   
   147  145  146 1   
   148  145  148 1   
   149  145  154 1   
   150  146  147 2   
   151  146  159 1   
   152  148  149 1   
   153  148  155 1   
   154  148  156 1   
   155  149  150 1   
   156  149  157 1   
   157  149  158 1   
   158  150  151 1   
   159  150  152 1   
   160  159  160 1   
   161  159  168 1   
   162  160  161 1   
   163  160  163 1   
   164  160  169 1   
   165  161  162 2   
   166  161  174 1   
   167  163  164 1   
   168  163  170 1   
   169  163  171 1   
   170  164  165 1   
   171  164  172 1   
   172  164  173 1   
   173  165  166 1   
   174  165  167 1   
   175  174  175 1   
   176  174  179 1   
   177  175  176 1   
   178  175  177 1   
   179  175  178 1   
   180  181  182 1   
   181  181  183 1   
   182  184  185 1   
   183  184  186 1   
   184  187  188 1   
   185  187  189 1   
   186  190  191 1   
   187  190  192 1   
   188  193  194 1   
   189  193  195 1   
@<TRIPOS>SUBSTRUCTURE
     1 MOL         1 TEMP              0 ****  ****    0 ROOT
