@<TRIPOS>MOLECULE
MOL
  182   178     1     0     0
SMALL
resp


@<TRIPOS>ATOM
      1 C1          1.5600   -4.1730    6.1120 c3        1 MOL     -0.359055
      2 C2          1.5920   -3.7580    4.6190 c         1 MOL      0.791424
      3 O1          0.6630   -4.0350    3.9260 o         1 MOL     -0.602679
      4 H1          0.6390   -3.8120    6.5690 hc        1 MOL      0.093655
      5 H2          1.6030   -5.2590    6.1890 hc        1 MOL      0.093655
      6 H3          2.4160   -3.7380    6.6280 hc        1 MOL      0.093655
      7 N1          2.6380   -3.0660    4.1520 n         1 MOL     -0.612043
      8 C3          2.8410   -2.7740    2.7390 c3        1 MOL     -0.065385
      9 C4          3.2540   -4.0640    2.0430 c         1 MOL      0.617988
     10 O2          4.3110   -4.6120    2.3390 o         1 MOL     -0.537849
     11 C5          3.8690   -1.6670    2.5400 c3        1 MOL     -0.102664
     12 C6          3.7750   -0.9430    1.1950 c         1 MOL      0.345413
     13 O3          4.1360    0.2200    1.0170 o         1 MOL     -0.634496
     14 O4          3.3540   -1.6250    0.2490 o         1 MOL     -0.634496
     15 H4          3.3590   -2.7550    4.7910 hn        1 MOL      0.334969
     16 H5          1.8920   -2.5280    2.2710 h1        1 MOL     -0.073244
     17 H6          4.8650   -2.0920    2.5740 hc        1 MOL      0.093384
     18 H7          3.8570   -0.9410    3.3580 hc        1 MOL      0.093384
     19 N2          2.5880   -4.4030    0.9330 n         1 MOL     -0.293606
     20 C7          3.0920   -5.3770   -0.0910 c3        1 MOL     -0.118859
     21 C8          4.5120   -5.0000   -0.6980 c         1 MOL      0.527236
     22 O5          5.3650   -5.8250   -0.7710 o         1 MOL     -0.513311
     23 C9          2.0040   -5.6880   -1.1250 c3        1 MOL      0.043102
     24 C10         0.7740   -6.4050   -0.6470 c3        1 MOL      0.077768
     25 C11        -0.3120   -6.4800   -1.7500 c3        1 MOL     -0.029546
     26 C12        -1.5070   -7.3070   -1.2790 c3        1 MOL      0.055802
     27 N3         -2.3990   -7.6280   -2.3580 n4        1 MOL     -0.159055
     28 H8          1.7790   -3.8250    0.7450 hn        1 MOL      0.183588
     29 H9          3.2910   -6.3320    0.4040 h1        1 MOL      0.104936
     30 H10         2.3680   -6.1450   -2.0430 hc        1 MOL      0.008062
     31 H11         1.6890   -4.6820   -1.4180 hc        1 MOL      0.008062
     32 H12         0.3640   -5.8150    0.1790 hc        1 MOL     -0.002579
     33 H13         1.0350   -7.3610   -0.1980 hc        1 MOL     -0.002579
     34 H14         0.2140   -6.8330   -2.6390 hc        1 MOL      0.009424
     35 H15        -0.5670   -5.4280   -1.8930 hc        1 MOL      0.009424
     36 H16        -1.9520   -6.7690   -0.4440 hx        1 MOL      0.056510
     37 H17        -1.1150   -8.2500   -0.8840 hx        1 MOL      0.056510
     38 H18        -3.1890   -8.1920   -2.0910 hn        1 MOL      0.227565
     39 H19        -2.7190   -6.8360   -2.9030 hn        1 MOL      0.227565
     40 H20        -1.9210   -8.2450   -2.9990 hn        1 MOL      0.227565
     41 N4          4.7210   -3.7070   -1.1980 n         1 MOL     -0.334541
     42 C13         5.9100   -3.2690   -1.9740 c3        1 MOL      0.085817
     43 C14         6.9020   -2.3280   -1.2140 c         1 MOL      0.403923
     44 O6          7.9950   -1.9830   -1.6810 o         1 MOL     -0.554851
     45 C15         5.5150   -2.6750   -3.3040 c3        1 MOL     -0.346806
     46 C16         4.3950   -1.5970   -3.3030 c         1 MOL      0.738647
     47 O7          3.5740   -1.4920   -4.2910 o         1 MOL     -0.716873
     48 O8          4.3160   -0.8870   -2.3010 o         1 MOL     -0.716873
     49 H21         4.0290   -3.0030   -0.9990 hn        1 MOL      0.238157
     50 H22         6.5630   -4.1410   -2.0550 h1        1 MOL      0.093732
     51 H23         5.0060   -3.4910   -3.8180 hc        1 MOL      0.084505
     52 H24         6.4370   -2.3270   -3.7720 hc        1 MOL      0.084505
     53 N5          6.5100   -1.9460   -0.0180 n         1 MOL     -0.083002
     54 C17         7.2920   -1.1700    0.9730 c3        1 MOL     -0.285184
     55 C18         7.5940    0.3270    0.5960 c         1 MOL      0.542020
     56 O9          8.4040    0.9510    1.2520 o         1 MOL     -0.519457
     57 H25         5.5810   -2.2560    0.2370 hn        1 MOL      0.135288
     58 H26         8.2270   -1.7210    1.0650 h1        1 MOL      0.137764
     59 H27         6.7900   -1.2790    1.9340 h1        1 MOL      0.137764
     60 N6          6.8610    0.9010   -0.3900 n         1 MOL     -0.156747
     61 C19         6.9570    2.2980   -0.7620 c3        1 MOL      0.006156
     62 C20         5.5660    2.8260   -0.8830 c         1 MOL      0.519108
     63 O10         4.5500    2.0950   -0.8340 o         1 MOL     -0.453199
     64 C21         7.6920    2.3620   -2.1120 c3        1 MOL     -0.300365
     65 C22         9.1160    1.9130   -1.9260 c         1 MOL      0.555419
     66 N7          9.4860    0.7690   -2.3300 n         1 MOL     -0.585136
     67 O11         9.9700    2.6580   -1.4310 o         1 MOL     -0.548845
     68 H28         6.1490    0.2880   -0.7580 hn        1 MOL      0.177720
     69 H29         7.5490    2.8930   -0.0570 h1        1 MOL      0.084634
     70 H30         7.7850    3.3810   -2.4950 hc        1 MOL      0.080810
     71 H31         7.2660    1.6980   -2.8570 hc        1 MOL      0.080810
     72 H32         8.7630    0.2310   -2.7940 hn        1 MOL      0.322796
     73 H33        10.4620    0.5940   -2.5370 hn        1 MOL      0.322796
     74 N8          5.4550    4.1950   -0.8560 n         1 MOL     -0.484431
     75 C23         4.3230    4.9980   -1.1740 c3        1 MOL      0.074851
     76 C24         3.2710    5.0460   -0.0560 c         1 MOL      0.584849
     77 O12         3.6420    4.9360    1.0940 o         1 MOL     -0.497936
     78 H34         6.3540    4.6330   -0.7050 hn        1 MOL      0.337034
     79 H35         3.7680    4.5660   -2.0090 h1        1 MOL      0.019949
     80 H36         4.6410    5.9970   -1.4720 h1        1 MOL      0.019949
     81 N9          1.9900    5.2230   -0.3140 n         1 MOL     -0.566141
     82 C25         0.9420    4.8800    0.6060 c3        1 MOL      0.108313
     83 C26         0.7830    3.3300    0.7470 c         1 MOL      0.626643
     84 O13         1.5580    2.5220    0.1500 o         1 MOL     -0.651442
     85 C27        -0.4180    5.4170    0.0940 c3        1 MOL     -0.144716
     86 C28        -0.5310    6.9190    0.0610 ca        1 MOL      0.103245
     87 C29        -0.2990    7.6540    1.2640 ca        1 MOL     -0.213731
     88 C30        -1.0630    7.5130   -1.1440 ca        1 MOL     -0.213731
     89 C31        -0.5710    9.0500    1.1490 ca        1 MOL     -0.200571
     90 C32        -1.3250    8.8840   -1.1970 ca        1 MOL     -0.200571
     91 C33        -1.1370    9.6580    0.0130 ca        1 MOL      0.272071
     92 O14        -1.6520   10.9070    0.0950 oh        1 MOL     -0.443683
     93 H37         1.7650    5.5200   -1.2590 hn        1 MOL      0.303571
     94 H38         1.1790    5.3160    1.5740 h1        1 MOL      0.085438
     95 H39        -1.2590    5.0830    0.6980 hc        1 MOL      0.056208
     96 H40        -0.6030    4.9780   -0.8880 hc        1 MOL      0.056208
     97 H41         0.0490    7.2000    2.1850 ha        1 MOL      0.155947
     98 H42        -1.2700    6.9270   -2.0260 ha        1 MOL      0.155947
     99 H43        -0.4100    9.6070    2.0570 ha        1 MOL      0.149497
    100 H44        -1.6770    9.3250   -2.1200 ha        1 MOL      0.149497
    101 H45        -1.7060   11.2220    0.9970 ho        1 MOL      0.355212
    102 N10         0.0370    2.9570    1.8060 n         1 MOL     -0.737953
    103 C34        -0.0500    1.5900    2.3720 c3        1 MOL      0.381818
    104 C35        -0.3040    0.4190    1.3970 c         1 MOL      0.043798
    105 O15         0.6230   -0.0250    0.6580 o         1 MOL      0.122247
    106 C36         1.1660    1.2170    3.2060 c3        1 MOL      0.220263
    107 C37         1.0010   -0.0170    4.1130 c3        1 MOL     -0.010891
    108 C38         1.7110    2.3920    4.0330 c3        1 MOL     -0.435121
    109 C39         0.0820    0.1560    5.3240 c3        1 MOL     -0.403797
    110 H46        -0.4140    3.6590    2.3640 hn        1 MOL      0.351754
    111 H47        -0.9320    1.5680    3.0120 h1        1 MOL     -0.006124
    112 H48         1.9610    0.9970    2.5040 hc        1 MOL      0.028201
    113 H49         1.9840   -0.2550    4.5190 hc        1 MOL      0.074500
    114 H50         0.6720   -0.8170    3.4460 hc        1 MOL      0.074500
    115 H51         2.1510    3.1160    3.3440 hc        1 MOL      0.108607
    116 H52         0.9310    2.7680    4.6940 hc        1 MOL      0.108607
    117 H53         2.4800    2.0130    4.7070 hc        1 MOL      0.108607
    118 H54         0.5220    0.9380    5.9300 hc        1 MOL      0.097717
    119 H55        -0.8990    0.4730    4.9790 hc        1 MOL      0.097717
    120 H56        -0.0930   -0.8010    5.8250 hc        1 MOL      0.097717
    121 N11        -1.4230   -0.3090    1.4970 n         1 MOL     -0.368289
    122 C40        -1.7700   -1.4680    0.6450 c3        1 MOL     -0.118547
    123 C41        -3.2700   -1.5870    0.3030 c         1 MOL      0.611647
    124 O16        -3.6790   -2.4010   -0.5010 o         1 MOL     -0.517015
    125 C42        -1.2200   -2.7540    1.2540 c3        1 MOL     -0.045538
    126 O17         0.0850   -2.9240    0.7170 oh        1 MOL     -0.132981
    127 H57        -2.1230   -0.0580    2.1890 hn        1 MOL      0.295439
    128 H58        -1.3080   -1.2470   -0.3170 h1        1 MOL      0.133953
    129 H59        -1.9960   -3.4980    1.0460 h1        1 MOL      0.120844
    130 H60        -1.1120   -2.6470    2.3300 h1        1 MOL      0.120844
    131 H61         0.4880   -2.0570    0.5960 ho        1 MOL     -0.177710
    132 N12        -4.1710   -0.7670    0.9200 n         1 MOL     -0.519536
    133 C43        -5.5220   -0.6900    0.3900 c3        1 MOL     -0.056022
    134 C44        -5.5970    0.0170   -0.9740 c         1 MOL      0.738620
    135 O18        -4.6620    0.6830   -1.4310 o         1 MOL     -0.621872
    136 C45        -6.4900   -0.1470    1.4310 c3        1 MOL     -0.128760
    137 H62        -3.7760   -0.0530    1.5130 hn        1 MOL      0.291111
    138 H63        -5.9200   -1.6950    0.2720 h1        1 MOL      0.149483
    139 H64        -6.5210    0.9450    1.4800 hc        1 MOL      0.044948
    140 H65        -7.5170   -0.4670    1.2820 hc        1 MOL      0.044948
    141 H66        -6.1530   -0.4540    2.4180 hc        1 MOL      0.044948
    142 N13        -6.6100   -0.0400   -1.7430 n         1 MOL     -0.684436
    143 C46        -7.7340   -1.0020   -1.6340 c3        1 MOL      0.267402
    144 C47        -8.9360   -0.5700   -2.4470 c         1 MOL      0.305580
    145 O19        -8.7190   -0.2450   -3.5920 o         1 MOL     -0.513157
    146 C48        -7.2580   -2.3720   -2.2230 c3        1 MOL     -0.059199
    147 H67        -6.6580    0.6180   -2.5160 hn        1 MOL      0.382494
    148 H68        -7.9270   -1.3030   -0.6010 h1        1 MOL      0.016073
    149 H69        -8.0330   -3.1350   -2.0780 hc        1 MOL      0.019344
    150 H70        -6.9190   -2.1880   -3.2450 hc        1 MOL      0.019344
    151 H71        -6.3610   -2.7290   -1.7120 hc        1 MOL      0.019344
    152 N14       -10.0850   -0.3970   -1.8710 n         1 MOL     -0.215785
    153 C49       -10.5700   -0.8320   -0.4860 c3        1 MOL     -0.146377
    154 C50       -10.1390    0.1800    0.6050 c         1 MOL      0.664406
    155 O20       -10.0010   -0.2250    1.7340 o         1 MOL     -0.529220
    156 C51       -12.0600   -1.3050   -0.5590 c3        1 MOL     -0.082393
    157 C52       -13.0560   -0.0950   -0.4430 c3        1 MOL     -0.132955
    158 C53       -14.5160   -0.6290   -0.3270 c         1 MOL      0.713815
    159 O21       -15.3680    0.0900    0.3000 o         1 MOL     -0.658124
    160 O22       -14.8670   -1.5540   -1.0030 o         1 MOL     -0.658124
    161 H72       -10.7820    0.1130   -2.3920 hn        1 MOL      0.244473
    162 H73       -10.0160   -1.7560   -0.2800 h1        1 MOL      0.071238
    163 H74       -12.3130   -1.8250    0.3620 hc        1 MOL      0.061314
    164 H75       -12.1940   -1.9300   -1.4440 hc        1 MOL      0.061314
    165 H76       -12.9730    0.5800   -1.2940 hc        1 MOL      0.020703
    166 H77       -12.8450    0.5390    0.4130 hc        1 MOL      0.020703
    167 N15        -9.9900    1.4690    0.2380 n         1 MOL     -0.357844
    168 C54        -9.5990    2.5260    1.1170 c3        1 MOL     -0.295703
    169 H78       -10.3830    2.6920    1.8560 h1        1 MOL      0.128169
    170 H79        -8.6740    2.2540    1.6250 h1        1 MOL      0.128169
    171 H80        -9.4450    3.4390    0.5420 h1        1 MOL      0.128169
    172 H81       -10.1340    1.7370   -0.7370 hn        1 MOL      0.255063
    173 Ca1         2.5110    0.4740   -1.1060 Ca        1 MOL      1.729826
    174 O23         0.9180   -1.6750   -1.6530 oh        1 MOL     -0.867866
    175 H82         0.9680   -2.4810   -1.1440 ho        1 MOL      0.430020
    176 H83         0.3430   -1.8970   -2.3850 ho        1 MOL      0.430020
    177 O24         3.0960    1.9330   -3.5290 oh        1 MOL     -0.867866
    178 H84         3.9430    1.9170   -3.9880 ho        1 MOL      0.430020
    179 H85         2.5910    2.5960   -3.9900 ho        1 MOL      0.430020
    180 O25         0.3170    1.1840   -2.3320 oh        1 MOL     -0.867866
    181 H86         0.3400    1.4710   -3.2440 ho        1 MOL      0.430020
    182 H87        -0.5960    1.3150   -2.0700 ho        1 MOL      0.430020
@<TRIPOS>BOND
     1    1    2 1   
     2    1    4 1   
     3    1    5 1   
     4    1    6 1   
     5    2    3 2   
     6    2    7 1   
     7    7    8 1   
     8    7   15 1   
     9    8    9 1   
    10    8   11 1   
    11    8   16 1   
    12    9   10 2   
    13    9   19 1   
    14   11   12 1   
    15   11   17 1   
    16   11   18 1   
    17   12   13 1   
    18   12   14 1   
    19   19   20 1   
    20   19   28 1   
    21   20   21 1   
    22   20   23 1   
    23   20   29 1   
    24   21   22 2   
    25   21   41 1   
    26   23   24 1   
    27   23   30 1   
    28   23   31 1   
    29   24   25 1   
    30   24   32 1   
    31   24   33 1   
    32   25   26 1   
    33   25   34 1   
    34   25   35 1   
    35   26   27 1   
    36   26   36 1   
    37   26   37 1   
    38   27   38 1   
    39   27   39 1   
    40   27   40 1   
    41   41   42 1   
    42   41   49 1   
    43   42   43 1   
    44   42   45 1   
    45   42   50 1   
    46   43   44 2   
    47   43   53 1   
    48   45   46 1   
    49   45   51 1   
    50   45   52 1   
    51   46   47 1   
    52   46   48 1   
    53   53   54 1   
    54   53   57 1   
    55   54   55 1   
    56   54   58 1   
    57   54   59 1   
    58   55   56 2   
    59   55   60 1   
    60   60   61 1   
    61   60   68 1   
    62   61   62 1   
    63   61   64 1   
    64   61   69 1   
    65   62   63 2   
    66   62   74 1   
    67   64   65 1   
    68   64   70 1   
    69   64   71 1   
    70   65   66 1   
    71   65   67 2   
    72   66   72 1   
    73   66   73 1   
    74   74   75 1   
    75   74   78 1   
    76   75   76 1   
    77   75   79 1   
    78   75   80 1   
    79   76   77 2   
    80   76   81 1   
    81   81   82 1   
    82   81   93 1   
    83   82   83 1   
    84   82   85 1   
    85   82   94 1   
    86   83   84 2   
    87   83  102 1   
    88   85   86 1   
    89   85   95 1   
    90   85   96 1   
    91   86   87 ar  
    92   86   88 ar  
    93   87   89 ar  
    94   87   97 1   
    95   88   90 ar  
    96   88   98 1   
    97   89   91 ar  
    98   89   99 1   
    99   90   91 ar  
   100   90  100 1   
   101   91   92 1   
   102   92  101 1   
   103  102  103 1   
   104  102  110 1   
   105  103  104 1   
   106  103  106 1   
   107  103  111 1   
   108  104  105 2   
   109  104  121 1   
   110  106  107 1   
   111  106  108 1   
   112  106  112 1   
   113  107  109 1   
   114  107  113 1   
   115  107  114 1   
   116  108  115 1   
   117  108  116 1   
   118  108  117 1   
   119  109  118 1   
   120  109  119 1   
   121  109  120 1   
   122  121  122 1   
   123  121  127 1   
   124  122  123 1   
   125  122  125 1   
   126  122  128 1   
   127  123  124 2   
   128  123  132 1   
   129  125  126 1   
   130  125  129 1   
   131  125  130 1   
   132  126  131 1   
   133  132  133 1   
   134  132  137 1   
   135  133  134 1   
   136  133  136 1   
   137  133  138 1   
   138  134  135 2   
   139  134  142 1   
   140  136  139 1   
   141  136  140 1   
   142  136  141 1   
   143  142  143 1   
   144  142  147 1   
   145  143  144 1   
   146  143  146 1   
   147  143  148 1   
   148  144  145 2   
   149  144  152 1   
   150  146  149 1   
   151  146  150 1   
   152  146  151 1   
   153  152  153 1   
   154  152  161 1   
   155  153  154 1   
   156  153  156 1   
   157  153  162 1   
   158  154  155 2   
   159  154  167 1   
   160  156  157 1   
   161  156  163 1   
   162  156  164 1   
   163  157  158 1   
   164  157  165 1   
   165  157  166 1   
   166  158  159 1   
   167  158  160 1   
   168  167  168 1   
   169  167  172 1   
   170  168  169 1   
   171  168  170 1   
   172  168  171 1   
   173  174  175 1   
   174  174  176 1   
   175  177  178 1   
   176  177  179 1   
   177  180  181 1   
   178  180  182 1   
@<TRIPOS>SUBSTRUCTURE
     1 MOL         1 TEMP              0 ****  ****    0 ROOT
