@<TRIPOS>MOLECULE
MOL
  175   173     1     0     0
SMALL
resp


@<TRIPOS>ATOM
      1 C1         -7.2500    7.8380    2.4310 c3        1 MOL     -0.340848
      2 C2         -7.7170    7.2460    1.1480 c         1 MOL      0.727044
      3 O1         -7.7110    8.0090    0.1550 o         1 MOL     -0.581729
      4 H1         -8.0790    7.8740    3.1370 hc        1 MOL      0.078036
      5 H2         -6.4480    7.2260    2.8440 hc        1 MOL      0.078036
      6 H3         -6.8810    8.8480    2.2520 hc        1 MOL      0.078036
      7 N1         -8.2080    5.9600    1.1580 n         1 MOL     -0.636433
      8 C3         -8.8510    5.3100    0.0660 c3        1 MOL      0.379536
      9 C4         -7.9910    4.2560   -0.6540 c         1 MOL      0.335576
     10 O2         -8.3760    3.6690   -1.6490 o         1 MOL     -0.493388
     11 C5        -10.1270    4.6210    0.4990 c3        1 MOL     -0.202369
     12 C6        -11.0460    4.1530   -0.5550 c         1 MOL      0.789286
     13 O3        -11.2580    4.8330   -1.5810 o         1 MOL     -0.756233
     14 O4        -11.7040    3.1200   -0.2810 o         1 MOL     -0.756233
     15 H4         -8.1580    5.3350    1.9470 hn        1 MOL      0.298675
     16 H5         -9.1930    6.0960   -0.6050 h1        1 MOL      0.012658
     17 H6        -10.6660    5.4320    0.9870 hc        1 MOL     -0.003230
     18 H7         -9.8670    3.8400    1.2220 hc        1 MOL     -0.003230
     19 N2         -6.8250    3.9320   -0.1010 n         1 MOL     -0.468401
     20 C7         -5.9180    3.0060   -0.7500 c3        1 MOL      0.378152
     21 C8         -5.1050    2.2010    0.2980 c         1 MOL      0.446314
     22 O5         -4.7420    2.6620    1.3940 o         1 MOL     -0.522878
     23 C9         -4.9260    3.8190   -1.6450 c3        1 MOL     -0.388436
     24 H8         -6.5410    4.3920    0.7550 hn        1 MOL      0.227397
     25 H9         -6.4170    2.2930   -1.4120 h1        1 MOL      0.030850
     26 H10        -5.3910    4.5030   -2.3440 hc        1 MOL      0.107616
     27 H11        -4.2920    4.3620   -0.9460 hc        1 MOL      0.107616
     28 H12        -4.3610    3.1000   -2.2400 hc        1 MOL      0.107616
     29 N3         -4.6150    1.0110   -0.0750 n         1 MOL     -0.457538
     30 C10        -5.1410    0.0540   -1.0990 c3        1 MOL     -0.016373
     31 C11        -5.2520   -1.3860   -0.5030 c         1 MOL      0.491528
     32 O6         -4.4670   -1.8740    0.3820 o         1 MOL     -0.529943
     33 C12        -4.1820   -0.0080   -2.3260 c3        1 MOL     -0.226680
     34 C13        -2.7310   -0.4710   -2.0530 c         1 MOL      0.800383
     35 O7         -2.2780   -1.5250   -2.4860 o         1 MOL     -0.752967
     36 O8         -1.9680    0.2090   -1.3490 o         1 MOL     -0.752967
     37 H13        -3.7780    0.7400    0.4160 hn        1 MOL      0.313308
     38 H14        -6.1530    0.3370   -1.3990 h1        1 MOL      0.079893
     39 H15        -4.1560    0.9440   -2.8560 hc        1 MOL      0.051053
     40 H16        -4.6280   -0.7330   -3.0170 hc        1 MOL      0.051053
     41 N4         -6.3130   -2.0800   -0.9390 n         1 MOL     -0.381174
     42 C14        -6.7470   -3.3870   -0.5110 c3        1 MOL      0.077399
     43 C15        -6.6240   -4.4770   -1.5950 c         1 MOL      0.489656
     44 O9         -7.6830   -4.8650   -2.0920 o         1 MOL     -0.554390
     45 H17        -6.9030   -1.6610   -1.6460 hn        1 MOL      0.303318
     46 H18        -7.7840   -3.3060   -0.1890 h1        1 MOL      0.047979
     47 H19        -6.1470   -3.7070    0.3390 h1        1 MOL      0.047979
     48 N5         -5.4520   -4.9750   -1.9760 n         1 MOL     -0.479772
     49 C16        -4.1240   -4.6780   -1.4400 c3        1 MOL      0.197383
     50 C17        -3.8200   -5.3040   -0.0060 c         1 MOL      0.420237
     51 O10        -3.7550   -6.5490    0.1670 o         1 MOL     -0.538478
     52 C18        -3.0970   -5.0940   -2.5300 c3        1 MOL     -0.271844
     53 C19        -1.6980   -4.5760   -2.2300 c         1 MOL      0.720299
     54 N6         -0.6750   -4.8720   -3.0690 n         1 MOL     -0.855237
     55 O11        -1.4470   -3.9850   -1.1390 o         1 MOL     -0.568063
     56 H20        -5.5800   -5.6520   -2.7160 hn        1 MOL      0.304104
     57 H21        -3.9710   -3.6060   -1.4120 h1        1 MOL      0.040388
     58 H22        -3.4140   -4.6280   -3.4710 hc        1 MOL      0.085057
     59 H23        -3.0620   -6.1790   -2.5790 hc        1 MOL      0.085057
     60 H24        -0.8070   -5.4750   -3.8620 hn        1 MOL      0.374680
     61 H25         0.2890   -4.6300   -2.9030 hn        1 MOL      0.374680
     62 N7         -3.5370   -4.5180    1.0680 n         1 MOL     -0.177902
     63 C20        -3.3150   -5.0210    2.4880 c3        1 MOL     -0.121277
     64 C21        -1.8590   -5.5190    2.7380 c         1 MOL      0.536640
     65 O12        -1.6030   -6.2390    3.6790 o         1 MOL     -0.571120
     66 H26        -3.6170   -3.5190    0.9450 hn        1 MOL      0.211222
     67 H27        -4.0970   -5.6920    2.8480 h1        1 MOL      0.075318
     68 H28        -3.5320   -4.1500    3.0960 h1        1 MOL      0.075318
     69 N8         -0.9010   -5.0730    1.9280 n         1 MOL     -0.136476
     70 C22         0.5510   -5.0700    2.2730 c3        1 MOL     -0.054469
     71 C23         1.2640   -3.7630    2.0770 c         1 MOL      0.422335
     72 O13         0.7210   -2.9150    1.3340 o         1 MOL     -0.364476
     73 C24         1.3100   -6.1000    1.4250 c3        1 MOL      0.433936
     74 C25         0.8380   -7.4870    1.6460 c3        1 MOL     -0.339067
     75 O14         1.0580   -5.8170    0.0260 oh        1 MOL     -0.717380
     76 H29        -1.1860   -4.3690    1.2560 hn        1 MOL      0.031713
     77 H30         0.5640   -5.3300    3.3350 h1        1 MOL      0.040908
     78 H31         2.3430   -6.0210    1.7510 h1        1 MOL     -0.037500
     79 H32         1.3710   -4.9640   -0.2750 ho        1 MOL      0.597501
     80 H33        -0.2300   -7.5310    1.8560 hc        1 MOL      0.079263
     81 H34         1.1060   -8.1770    0.8490 hc        1 MOL      0.079263
     82 H35         1.2410   -7.8840    2.5820 hc        1 MOL      0.079263
     83 N9          2.3390   -3.5290    2.7860 n         1 MOL     -0.524519
     84 C26         3.1970   -2.4010    2.4580 c3        1 MOL      0.214349
     85 C27         4.1410   -2.9770    1.3520 c         1 MOL      0.107327
     86 O15         4.7120   -4.0550    1.4890 o         1 MOL     -0.469667
     87 C28         3.9590   -1.7940    3.6600 c3        1 MOL      0.291984
     88 C29         4.5120   -0.3660    3.3210 c3        1 MOL      0.145233
     89 C30         3.1230   -1.8150    4.9970 c3        1 MOL     -0.430023
     90 C31         5.3510    0.3650    4.3450 c3        1 MOL     -0.254442
     91 H36         2.6830   -4.3970    3.1890 hn        1 MOL      0.313307
     92 H37         2.6240   -1.5780    2.0340 h1        1 MOL     -0.046922
     93 H38         4.7880   -2.4740    3.8630 hc        1 MOL     -0.051430
     94 H39         3.6410    0.2810    3.1850 hc        1 MOL     -0.070759
     95 H40         5.0100   -0.4530    2.3570 hc        1 MOL     -0.070759
     96 H41         3.6020   -1.2860    5.8160 hc        1 MOL      0.101920
     97 H42         2.1920   -1.2700    4.8310 hc        1 MOL      0.101920
     98 H43         2.9780   -2.8530    5.2740 hc        1 MOL      0.101920
     99 H44         5.8830    1.1580    3.8180 hc        1 MOL      0.048888
    100 H45         4.7840    0.8410    5.1360 hc        1 MOL      0.048888
    101 H46         6.0060   -0.4130    4.7560 hc        1 MOL      0.048888
    102 N10         4.1740   -2.2160    0.2550 n         1 MOL     -0.051602
    103 C32         4.9800   -2.5690   -0.9190 c3        1 MOL      0.019189
    104 C33         5.8840   -1.4320   -1.4380 c         1 MOL      0.516752
    105 O16         6.4200   -1.5380   -2.5370 o         1 MOL     -0.545592
    106 C34         4.0020   -2.9460   -2.0910 c3        1 MOL      0.060041
    107 C35         2.8290   -3.8560   -1.7160 c         1 MOL      0.563568
    108 O17         2.9780   -5.0840   -1.7860 o         1 MOL     -0.661911
    109 O18         1.7150   -3.3430   -1.3800 o         1 MOL     -0.661911
    110 H47         3.6010   -1.3860    0.3220 hn        1 MOL      0.204811
    111 H48         5.6310   -3.4140   -0.6910 h1        1 MOL      0.081417
    112 H49         4.5440   -3.3340   -2.9630 hc        1 MOL     -0.043280
    113 H50         3.4230   -2.0630   -2.3850 hc        1 MOL     -0.043280
    114 N11         6.0260   -0.3050   -0.6980 n         1 MOL     -0.526884
    115 C36         6.6020    0.9540   -1.1670 c3        1 MOL      0.520611
    116 C37         6.0520    2.2520   -0.5390 c         1 MOL      0.303985
    117 O19         5.5300    2.1900    0.5870 o         1 MOL     -0.442025
    118 C38         8.1220    0.8200   -0.9060 c3        1 MOL     -0.395038
    119 C39         9.0610    1.9180   -1.3520 ca        1 MOL      0.204286
    120 C40         9.6310    2.8430   -0.4200 ca        1 MOL     -0.180550
    121 C41         9.4360    2.0200   -2.7180 ca        1 MOL     -0.180550
    122 C42        10.4590    3.8620   -0.9140 ca        1 MOL     -0.127309
    123 C43        10.3960    2.9740   -3.1690 ca        1 MOL     -0.127309
    124 C44        10.9530    3.8950   -2.2550 ca        1 MOL     -0.144788
    125 H51         5.6020   -0.2900    0.2180 hn        1 MOL      0.224376
    126 H52         6.4300    1.0210   -2.2330 h1        1 MOL     -0.018699
    127 H53         8.3950   -0.1090   -1.3890 hc        1 MOL      0.117518
    128 H54         8.3170    0.7360    0.1710 hc        1 MOL      0.117518
    129 H55         9.2410    2.9780    0.5740 ha        1 MOL      0.129935
    130 H56         8.9920    1.3820   -3.4640 ha        1 MOL      0.129935
    131 H57        10.6550    4.7280   -0.2980 ha        1 MOL      0.119080
    132 H58        10.7030    2.9140   -4.1980 ha        1 MOL      0.119080
    133 H59        11.6620    4.6390   -2.5670 ha        1 MOL      0.119138
    134 N12         6.0210    3.4730   -1.2800 n         1 MOL     -0.295098
    135 C45         5.8560    4.7740   -0.6780 c3        1 MOL      0.022416
    136 C46         4.5310    5.1550    0.0740 c         1 MOL      0.450625
    137 O20         4.4630    6.2090    0.6340 o         1 MOL     -0.532493
    138 C47         6.2390    5.6700   -1.8940 c3        1 MOL     -0.109365
    139 C48         7.2600    4.9090   -2.6780 c3        1 MOL     -0.069742
    140 C49         6.5010    3.5180   -2.6360 c3        1 MOL     -0.159637
    141 H60         6.6840    4.9190    0.0210 h1        1 MOL      0.103520
    142 H61         5.3950    5.7630   -2.5800 hc        1 MOL      0.068696
    143 H62         6.6700    6.5790   -1.4860 hc        1 MOL      0.068696
    144 H63         7.2790    5.2610   -3.7050 hc        1 MOL      0.058552
    145 H64         8.2080    4.9440   -2.1520 hc        1 MOL      0.058552
    146 H65         5.6720    3.6030   -3.3310 h1        1 MOL      0.112935
    147 H66         7.1510    2.6880   -2.9200 h1        1 MOL      0.112935
    148 N13         3.5220    4.2650    0.1650 n         1 MOL     -0.324187
    149 C50         2.2360    4.3390    0.8740 c3        1 MOL     -0.049477
    150 C51         2.2530    4.7520    2.3630 c         1 MOL      0.434656
    151 O21         1.2280    5.2700    2.8860 o         1 MOL     -0.534390
    152 C52         1.5080    3.0020    0.7690 c3        1 MOL     -0.188185
    153 C53         2.0020    1.7610    1.4010 c3        1 MOL     -0.191497
    154 C54         1.4220    0.4950    0.7210 c         1 MOL      0.824232
    155 O22         2.1110   -0.1670   -0.0200 o         1 MOL     -0.813689
    156 O23         0.2490    0.1360    0.9160 o         1 MOL     -0.813689
    157 H67         3.7910    3.3390   -0.1320 hn        1 MOL      0.257130
    158 H68         1.5910    5.0690    0.3710 h1        1 MOL      0.120265
    159 H69         1.3370    2.9810   -0.3000 hc        1 MOL      0.093047
    160 H70         0.5410    3.2590    1.1970 hc        1 MOL      0.093047
    161 H71         1.7380    1.7260    2.4600 hc        1 MOL      0.111137
    162 H72         3.0800    1.7370    1.2490 hc        1 MOL      0.111137
    163 N14         3.3900    4.7320    3.0410 n         1 MOL     -0.157067
    164 C55         3.4140    4.9480    4.4850 c3        1 MOL     -0.173857
    165 H73         2.3930    4.9830    4.8640 h1        1 MOL      0.085985
    166 H74         3.9520    4.1300    4.9660 h1        1 MOL      0.085985
    167 H75         3.9150    5.8900    4.7040 h1        1 MOL      0.085985
    168 H76         4.2070    4.3450    2.5870 hn        1 MOL      0.203751
    169 Ca1        -0.1150   -1.6010   -0.8360 Ca        1 MOL      1.708563
    170 O24         0.4940   -1.2740   -3.4230 oh        1 MOL     -0.801636
    171 H77         0.6210   -2.1200   -3.8590 ho        1 MOL      0.398781
    172 H78         0.6490   -0.6220   -4.1070 ho        1 MOL      0.398781
    173 O25        -1.9030   -1.9340    1.2200 oh        1 MOL     -0.801636
    174 H79        -2.6920   -1.6060    0.8000 ho        1 MOL      0.398781
    175 H80        -1.8670   -1.4680    2.0630 ho        1 MOL      0.398781
@<TRIPOS>BOND
     1    1    2 1   
     2    1    4 1   
     3    1    5 1   
     4    1    6 1   
     5    2    3 2   
     6    2    7 1   
     7    7    8 1   
     8    7   15 1   
     9    8    9 1   
    10    8   11 1   
    11    8   16 1   
    12    9   10 2   
    13    9   19 1   
    14   11   12 1   
    15   11   17 1   
    16   11   18 1   
    17   12   13 1   
    18   12   14 1   
    19   19   20 1   
    20   19   24 1   
    21   20   21 1   
    22   20   23 1   
    23   20   25 1   
    24   21   22 2   
    25   21   29 1   
    26   23   26 1   
    27   23   27 1   
    28   23   28 1   
    29   29   30 1   
    30   29   37 1   
    31   30   31 1   
    32   30   33 1   
    33   30   38 1   
    34   31   32 2   
    35   31   41 1   
    36   33   34 1   
    37   33   39 1   
    38   33   40 1   
    39   34   35 1   
    40   34   36 1   
    41   41   42 1   
    42   41   45 1   
    43   42   43 1   
    44   42   46 1   
    45   42   47 1   
    46   43   44 2   
    47   43   48 1   
    48   48   49 1   
    49   48   56 1   
    50   49   50 1   
    51   49   52 1   
    52   49   57 1   
    53   50   51 2   
    54   50   62 1   
    55   52   53 1   
    56   52   58 1   
    57   52   59 1   
    58   53   54 1   
    59   53   55 2   
    60   54   60 1   
    61   54   61 1   
    62   62   63 1   
    63   62   66 1   
    64   63   64 1   
    65   63   67 1   
    66   63   68 1   
    67   64   65 2   
    68   64   69 1   
    69   69   70 1   
    70   69   76 1   
    71   70   71 1   
    72   70   73 1   
    73   70   77 1   
    74   71   72 2   
    75   71   83 1   
    76   73   74 1   
    77   73   75 1   
    78   73   78 1   
    79   74   80 1   
    80   74   81 1   
    81   74   82 1   
    82   75   79 1   
    83   83   84 1   
    84   83   91 1   
    85   84   85 1   
    86   84   87 1   
    87   84   92 1   
    88   85   86 2   
    89   85  102 1   
    90   87   88 1   
    91   87   89 1   
    92   87   93 1   
    93   88   90 1   
    94   88   94 1   
    95   88   95 1   
    96   89   96 1   
    97   89   97 1   
    98   89   98 1   
    99   90   99 1   
   100   90  100 1   
   101   90  101 1   
   102  102  103 1   
   103  102  110 1   
   104  103  104 1   
   105  103  106 1   
   106  103  111 1   
   107  104  105 2   
   108  104  114 1   
   109  106  107 1   
   110  106  112 1   
   111  106  113 1   
   112  107  108 1   
   113  107  109 1   
   114  114  115 1   
   115  114  125 1   
   116  115  116 1   
   117  115  118 1   
   118  115  126 1   
   119  116  117 2   
   120  116  134 1   
   121  118  119 1   
   122  118  127 1   
   123  118  128 1   
   124  119  120 ar  
   125  119  121 ar  
   126  120  122 ar  
   127  120  129 1   
   128  121  123 ar  
   129  121  130 1   
   130  122  124 ar  
   131  122  131 1   
   132  123  124 ar  
   133  123  132 1   
   134  124  133 1   
   135  134  135 1   
   136  134  140 1   
   137  135  136 1   
   138  135  138 1   
   139  135  141 1   
   140  136  137 2   
   141  136  148 1   
   142  138  139 1   
   143  138  142 1   
   144  138  143 1   
   145  139  140 1   
   146  139  144 1   
   147  139  145 1   
   148  140  146 1   
   149  140  147 1   
   150  148  149 1   
   151  148  157 1   
   152  149  150 1   
   153  149  152 1   
   154  149  158 1   
   155  150  151 2   
   156  150  163 1   
   157  152  153 1   
   158  152  159 1   
   159  152  160 1   
   160  153  154 1   
   161  153  161 1   
   162  153  162 1   
   163  154  155 1   
   164  154  156 1   
   165  163  164 1   
   166  163  168 1   
   167  164  165 1   
   168  164  166 1   
   169  164  167 1   
   170  170  171 1   
   171  170  172 1   
   172  173  174 1   
   173  173  175 1   
@<TRIPOS>SUBSTRUCTURE
     1 MOL         1 TEMP              0 ****  ****    0 ROOT
