@<TRIPOS>MOLECULE
MOL
  185   180     1     0     0
SMALL
resp


@<TRIPOS>ATOM
      1 C1         -4.3950   -0.6000   -3.9020 c3        1 MOL     -0.283813
      2 C2         -5.4510   -0.2820   -2.7940 c         1 MOL      0.515757
      3 O1         -5.0810    0.0780   -1.6490 o         1 MOL     -0.496028
      4 H1         -4.4960    0.1180   -4.7150 hc        1 MOL      0.079844
      5 H2         -3.3940   -0.5320   -3.4790 hc        1 MOL      0.079844
      6 H3         -4.5620   -1.6070   -4.2850 hc        1 MOL      0.079844
      7 N1         -6.7290   -0.2410   -3.1280 n         1 MOL     -0.533756
      8 C3         -7.8620    0.2320   -2.3820 c3        1 MOL      0.397770
      9 C4         -7.8740   -0.3580   -0.8980 c         1 MOL      0.070685
     10 O2         -8.0310    0.3320    0.1370 o         1 MOL     -0.427821
     11 C5         -7.8400    1.7590   -2.2730 c3        1 MOL     -0.394226
     12 C6         -9.0560    2.3910   -1.6370 c         1 MOL      0.729475
     13 O3        -10.0450    1.6530   -1.4780 o         1 MOL     -0.699031
     14 O4         -9.0500    3.6280   -1.3940 o         1 MOL     -0.699031
     15 H4         -6.9070   -0.4340   -4.1040 hn        1 MOL      0.292549
     16 H5         -8.8410   -0.0600   -2.7740 h1        1 MOL     -0.029414
     17 H6         -7.6140    2.1880   -3.2550 hc        1 MOL      0.144171
     18 H7         -7.0130    2.0800   -1.6550 hc        1 MOL      0.144171
     19 N2         -7.6050   -1.6370   -0.7680 n         1 MOL     -0.154042
     20 C7         -7.4370   -2.4000    0.4520 c3        1 MOL      0.007962
     21 C8         -6.0000   -2.9980    0.6420 c         1 MOL      0.636120
     22 O5         -5.8730   -4.0560    1.2350 o         1 MOL     -0.599106
     23 C9         -8.5570   -3.4880    0.4570 c3        1 MOL     -0.128454
     24 C10        -9.8930   -2.7770    0.6430 c3        1 MOL      0.179709
     25 C11       -11.0290   -3.6410    1.1800 c3        1 MOL     -0.016033
     26 C12       -12.3360   -2.6800    1.3070 c3        1 MOL     -0.159349
     27 N3        -12.5790   -1.9600    0.0020 n4        1 MOL     -0.322124
     28 H8         -7.5490   -2.1420   -1.6380 hn        1 MOL      0.159244
     29 H9         -7.3300   -1.7750    1.3270 h1        1 MOL      0.124573
     30 H10        -8.3290   -4.0650    1.3530 hc        1 MOL      0.034688
     31 H11        -8.5560   -4.2020   -0.3700 hc        1 MOL      0.034688
     32 H12       -10.1980   -2.3340   -0.3070 hc        1 MOL      0.013087
     33 H13        -9.8050   -2.0740    1.4680 hc        1 MOL      0.013087
     34 H14       -10.9030   -4.1390    2.1420 hc        1 MOL      0.021902
     35 H15       -11.2170   -4.3630    0.3890 hc        1 MOL      0.021902
     36 H16       -12.2230   -1.9710    2.1210 hx        1 MOL      0.150686
     37 H17       -13.2560   -3.2080    1.5640 hx        1 MOL      0.150686
     38 H18       -12.0740   -1.0870   -0.0390 hn        1 MOL      0.312374
     39 H19       -12.3700   -2.4940   -0.8270 hn        1 MOL      0.312374
     40 H20       -13.5480   -1.7060   -0.1250 hn        1 MOL      0.312374
     41 N4         -4.9930   -2.3110    0.0880 n         1 MOL     -0.608704
     42 C13        -3.6200   -2.6640    0.3660 c3        1 MOL      0.176367
     43 C14        -3.2630   -2.2090    1.7830 c         1 MOL      0.432167
     44 O6         -3.5080   -1.0740    2.2430 o         1 MOL     -0.455730
     45 C15        -2.7030   -1.9230   -0.6550 c3        1 MOL     -0.324043
     46 C16        -1.2820   -2.4700   -0.5760 c         1 MOL      0.693459
     47 O7         -0.7540   -2.7320    0.5100 o         1 MOL     -0.717993
     48 O8         -0.7140   -2.8740   -1.6320 o         1 MOL     -0.717993
     49 H21        -5.2700   -1.5520   -0.5300 hn        1 MOL      0.344920
     50 H22        -3.4730   -3.7390    0.2520 h1        1 MOL      0.060549
     51 H23        -2.6100   -0.9080   -0.2600 hc        1 MOL      0.132105
     52 H24        -3.1310   -2.0210   -1.6570 hc        1 MOL      0.132105
     53 N5         -2.6500   -3.1300    2.5050 n         1 MOL     -0.239115
     54 C17        -2.0820   -2.9560    3.8940 c3        1 MOL     -0.147740
     55 C18        -1.2130   -1.7200    4.0890 c         1 MOL      0.517407
     56 O9         -1.2660   -1.0710    5.1870 o         1 MOL     -0.560185
     57 H25        -2.5830   -4.0260    2.0370 hn        1 MOL      0.199821
     58 H26        -1.4340   -3.7930    4.1260 h1        1 MOL      0.103837
     59 H27        -2.8940   -2.9180    4.6240 h1        1 MOL      0.103837
     60 N6         -0.3380   -1.3770    3.1700 n         1 MOL     -0.378650
     61 C19         0.4710   -0.1980    3.3220 c3        1 MOL     -0.004015
     62 C20        -0.3840    1.0910    3.2440 c         1 MOL      0.459375
     63 O10         0.1850    2.1630    3.3870 o         1 MOL     -0.515198
     64 C21         1.5700   -0.3560    2.1720 c3        1 MOL     -0.578940
     65 C22         2.4200   -1.5840    2.2740 c         1 MOL      0.819652
     66 N7          3.5270   -1.5350    3.0390 n         1 MOL     -0.742229
     67 O11         2.1680   -2.5770    1.6270 o         1 MOL     -0.684070
     68 H28        -0.3060   -1.9190    2.3160 hn        1 MOL      0.369370
     69 H29         0.8980   -0.2440    4.3280 h1        1 MOL      0.134653
     70 H30         2.2020    0.5290    2.1550 hc        1 MOL      0.195509
     71 H31         1.1060   -0.4190    1.1840 hc        1 MOL      0.195509
     72 H32         3.8240   -0.7000    3.5360 hn        1 MOL      0.352774
     73 H33         4.1100   -2.3510    3.0850 hn        1 MOL      0.352774
     74 N8         -1.7800    1.1130    3.0800 n         1 MOL     -0.131793
     75 C23        -2.6230    2.3070    2.8850 c3        1 MOL     -0.331225
     76 C24        -2.1590    3.2380    1.7470 c         1 MOL      0.539191
     77 O12        -2.4100    4.4560    1.7650 o         1 MOL     -0.531935
     78 H34        -2.2670    0.2460    2.9190 hn        1 MOL      0.122007
     79 H35        -2.7110    2.8330    3.8370 h1        1 MOL      0.172720
     80 H36        -3.6510    2.0050    2.6820 h1        1 MOL      0.172720
     81 N9         -1.5640    2.6390    0.7480 n         1 MOL     -0.263215
     82 C25        -0.8840    3.3010   -0.3840 c3        1 MOL      0.032477
     83 C26         0.3950    2.5460   -0.8780 c         1 MOL      0.573332
     84 O13         0.4460    1.3380   -0.8220 o         1 MOL     -0.517781
     85 C27        -1.8910    3.3380   -1.5650 c3        1 MOL     -0.058319
     86 C28        -3.1300    4.2470   -1.2470 ca        1 MOL      0.290653
     87 C29        -4.4390    3.7670   -1.3830 ca        1 MOL     -0.415593
     88 C30        -2.9830    5.6510   -1.0010 ca        1 MOL     -0.415593
     89 C31        -5.5540    4.5140   -1.0230 ca        1 MOL     -0.049501
     90 C32        -4.0730    6.4170   -0.6100 ca        1 MOL     -0.049501
     91 C33        -5.3960    5.8590   -0.6110 ca        1 MOL      0.204468
     92 O14        -6.4980    6.5940   -0.3880 oh        1 MOL     -0.413127
     93 H37        -1.7130    1.6430    0.7660 hn        1 MOL      0.207158
     94 H38        -0.5390    4.2880   -0.0800 h1        1 MOL      0.061861
     95 H39        -2.1560    2.2900   -1.7260 hc        1 MOL      0.017411
     96 H40        -1.4630    3.7410   -2.4850 hc        1 MOL      0.017411
     97 H41        -4.5650    2.7910   -1.8310 ha        1 MOL      0.164702
     98 H42        -1.9970    6.1090   -1.0100 ha        1 MOL      0.164702
     99 H43        -6.5700    4.1490   -1.1150 ha        1 MOL      0.081280
    100 H44        -3.9010    7.4780   -0.4710 ha        1 MOL      0.081280
    101 H45        -6.2730    7.5190   -0.3310 ho        1 MOL      0.339255
    102 N10         1.4500    3.3150   -1.2100 n         1 MOL     -0.595065
    103 C34         2.7730    2.7680   -1.5400 c3        1 MOL      0.404842
    104 C35         3.6850    2.5290   -0.3140 c         1 MOL      0.407946
    105 O15         4.0230    1.3860    0.0420 o         1 MOL     -0.542016
    106 C36         3.4080    3.6210   -2.6800 c3        1 MOL      0.050726
    107 C37         2.5520    3.6310   -3.9670 c3        1 MOL     -0.204764
    108 C38         4.8610    3.0840   -2.8420 c3        1 MOL     -0.553792
    109 C39         2.4920    2.3240   -4.8460 c3        1 MOL     -0.123747
    110 H46         1.4240    4.3270   -1.2870 hn        1 MOL      0.289148
    111 H47         2.6800    1.7880   -2.0060 h1        1 MOL     -0.014326
    112 H48         3.3520    4.6290   -2.2630 hc        1 MOL     -0.024759
    113 H49         3.0240    4.3140   -4.6650 hc        1 MOL      0.087393
    114 H50         1.5300    3.9380   -3.7590 hc        1 MOL      0.087393
    115 H51         5.1940    3.4570   -3.8140 hc        1 MOL      0.157798
    116 H52         5.5300    3.4540   -2.0690 hc        1 MOL      0.157798
    117 H53         4.7860    2.0010   -2.9570 hc        1 MOL      0.157798
    118 H54         1.9920    1.4970   -4.3430 hc        1 MOL      0.050269
    119 H55         1.9930    2.5510   -5.7830 hc        1 MOL      0.050269
    120 H56         3.5020    2.0180   -5.1130 hc        1 MOL      0.050269
    121 N11         3.9010    3.6140    0.4280 n         1 MOL     -0.458245
    122 C40         4.4610    3.5880    1.7910 c3        1 MOL      0.321442
    123 C41         5.9820    3.3930    1.7990 c         1 MOL      0.241008
    124 O16         6.4960    3.0260    2.8470 o         1 MOL     -0.447859
    125 C42         4.2300    4.9920    2.4720 c3        1 MOL      0.159368
    126 O17         2.8110    5.3710    2.4230 oh        1 MOL     -0.610700
    127 H57         3.7060    4.5580    0.1150 hn        1 MOL      0.266278
    128 H58         4.1230    2.7610    2.4230 h1        1 MOL      0.050433
    129 H59         4.7640    5.7780    1.9340 h1        1 MOL      0.030134
    130 H60         4.4610    4.9410    3.5320 h1        1 MOL      0.030134
    131 H61         2.7790    6.3190    2.5590 ho        1 MOL      0.407469
    132 N12         6.7260    3.6990    0.6580 n         1 MOL     -0.432108
    133 C43         8.1940    3.4110    0.5310 c3        1 MOL      0.128625
    134 C44         8.6660    2.0040    0.9110 c         1 MOL      0.476305
    135 O18         9.8550    1.7300    1.0190 o         1 MOL     -0.527653
    136 C45         9.0110    4.3850    1.3940 c3        1 MOL     -0.191872
    137 H62         6.2080    4.0370   -0.1340 hn        1 MOL      0.280276
    138 H63         8.4600    3.5490   -0.5110 h1        1 MOL      0.069063
    139 H64         9.0120    5.3460    0.8700 hc        1 MOL      0.066560
    140 H65         8.5820    4.5680    2.3820 hc        1 MOL      0.066560
    141 H66        10.0470    4.0930    1.4900 hc        1 MOL      0.066560
    142 N13         7.7460    1.0660    1.0900 n         1 MOL     -0.490996
    143 C46         7.9420   -0.4030    1.3180 c3        1 MOL      0.390889
    144 C47         7.8970   -1.1510   -0.0350 c         1 MOL      0.513443
    145 O19         7.3720   -0.6410   -0.9930 o         1 MOL     -0.491821
    146 C48         7.0010   -0.9870    2.3770 c3        1 MOL      0.028815
    147 H67         6.8030    1.4120    1.0200 hn        1 MOL      0.214827
    148 H68         8.9370   -0.5780    1.7240 h1        1 MOL     -0.026616
    149 H69         7.3070   -2.0230    2.5300 hc        1 MOL     -0.002505
    150 H70         7.1610   -0.6150    3.3810 hc        1 MOL     -0.002505
    151 H71         5.9350   -1.0680    2.1430 hc        1 MOL     -0.002505
    152 N14         8.3560   -2.3840   -0.0770 n         1 MOL     -0.726368
    153 C49         8.1930   -3.2850   -1.1800 c3        1 MOL      0.219246
    154 C50         8.8820   -2.9770   -2.5120 c         1 MOL      0.470596
    155 O20         8.5440   -3.7010   -3.4600 o         1 MOL     -0.534378
    156 C51         6.7060   -3.8720   -1.3310 c3        1 MOL     -0.039628
    157 C52         6.0670   -4.2240    0.0510 c3        1 MOL     -0.086655
    158 C53         4.8710   -5.1290   -0.1310 c         1 MOL      0.550996
    159 O21         5.0400   -6.3660    0.0480 o         1 MOL     -0.662372
    160 O22         3.7590   -4.6560   -0.5020 o         1 MOL     -0.662372
    161 H72         8.7880   -2.8570    0.7120 hn        1 MOL      0.352514
    162 H73         8.8180   -4.0840   -0.7860 h1        1 MOL      0.031004
    163 H74         6.7890   -4.7470   -1.9820 hc        1 MOL      0.041444
    164 H75         6.1400   -3.0590   -1.7990 hc        1 MOL      0.041444
    165 H76         5.9110   -3.3910    0.7280 hc        1 MOL      0.012736
    166 H77         6.7910   -4.8430    0.5920 hc        1 MOL      0.012736
    167 N15         9.7790   -1.9990   -2.5630 n         1 MOL     -0.397264
    168 C54        10.3400   -1.4420   -3.8590 c3        1 MOL     -0.058750
    169 H78        10.1230   -2.1320   -4.6750 h1        1 MOL      0.074777
    170 H79         9.8800   -0.4760   -4.0690 h1        1 MOL      0.074777
    171 H80        11.4180   -1.3190   -3.7660 h1        1 MOL      0.074777
    172 H81         9.9550   -1.4030   -1.7640 hn        1 MOL      0.283030
    173 Ca1         1.4690   -3.6420   -0.7180 Ca        1 MOL      1.688748
    174 O23         2.0230   -1.0650   -1.3870 oh        1 MOL     -0.854667
    175 H82         1.5070   -0.3080   -1.1090 ho        1 MOL      0.424710
    176 H83         2.8590   -0.7080   -1.6630 ho        1 MOL      0.424710
    177 O24         0.3020   -5.4790    0.7280 oh        1 MOL     -0.854667
    178 H84         0.5040   -6.3970    0.5450 ho        1 MOL      0.424710
    179 H85        -0.5510   -5.5060    1.1700 ho        1 MOL      0.424710
    180 O25         2.1500   -3.4650   -3.1990 oh        1 MOL     -0.854667
    181 H86         1.8410   -3.9610   -3.9710 ho        1 MOL      0.424710
    182 H87         2.6460   -2.7360   -3.5720 ho        1 MOL      0.424710
    183 O26         0.7250   -6.0120   -2.0580 oh        1 MOL     -0.854667
    184 H88        -0.0050   -6.6170   -1.9390 ho        1 MOL      0.424710
    185 H89         1.4280   -6.5530   -2.4190 ho        1 MOL      0.424710
@<TRIPOS>BOND
     1    1    2 1   
     2    1    4 1   
     3    1    5 1   
     4    1    6 1   
     5    2    3 2   
     6    2    7 1   
     7    7    8 1   
     8    7   15 1   
     9    8    9 1   
    10    8   11 1   
    11    8   16 1   
    12    9   10 2   
    13    9   19 1   
    14   11   12 1   
    15   11   17 1   
    16   11   18 1   
    17   12   13 1   
    18   12   14 1   
    19   19   20 1   
    20   19   28 1   
    21   20   21 1   
    22   20   23 1   
    23   20   29 1   
    24   21   22 2   
    25   21   41 1   
    26   23   24 1   
    27   23   30 1   
    28   23   31 1   
    29   24   25 1   
    30   24   32 1   
    31   24   33 1   
    32   25   26 1   
    33   25   34 1   
    34   25   35 1   
    35   26   27 1   
    36   26   36 1   
    37   26   37 1   
    38   27   38 1   
    39   27   39 1   
    40   27   40 1   
    41   41   42 1   
    42   41   49 1   
    43   42   43 1   
    44   42   45 1   
    45   42   50 1   
    46   43   44 2   
    47   43   53 1   
    48   45   46 1   
    49   45   51 1   
    50   45   52 1   
    51   46   47 1   
    52   46   48 1   
    53   53   54 1   
    54   53   57 1   
    55   54   55 1   
    56   54   58 1   
    57   54   59 1   
    58   55   56 2   
    59   55   60 1   
    60   60   61 1   
    61   60   68 1   
    62   61   62 1   
    63   61   64 1   
    64   61   69 1   
    65   62   63 2   
    66   62   74 1   
    67   64   65 1   
    68   64   70 1   
    69   64   71 1   
    70   65   66 1   
    71   65   67 2   
    72   66   72 1   
    73   66   73 1   
    74   74   75 1   
    75   74   78 1   
    76   75   76 1   
    77   75   79 1   
    78   75   80 1   
    79   76   77 2   
    80   76   81 1   
    81   81   82 1   
    82   81   93 1   
    83   82   83 1   
    84   82   85 1   
    85   82   94 1   
    86   83   84 2   
    87   83  102 1   
    88   85   86 1   
    89   85   95 1   
    90   85   96 1   
    91   86   87 ar  
    92   86   88 ar  
    93   87   89 ar  
    94   87   97 1   
    95   88   90 ar  
    96   88   98 1   
    97   89   91 ar  
    98   89   99 1   
    99   90   91 ar  
   100   90  100 1   
   101   91   92 1   
   102   92  101 1   
   103  102  103 1   
   104  102  110 1   
   105  103  104 1   
   106  103  106 1   
   107  103  111 1   
   108  104  105 2   
   109  104  121 1   
   110  106  107 1   
   111  106  108 1   
   112  106  112 1   
   113  107  109 1   
   114  107  113 1   
   115  107  114 1   
   116  108  115 1   
   117  108  116 1   
   118  108  117 1   
   119  109  118 1   
   120  109  119 1   
   121  109  120 1   
   122  121  122 1   
   123  121  127 1   
   124  122  123 1   
   125  122  125 1   
   126  122  128 1   
   127  123  124 2   
   128  123  132 1   
   129  125  126 1   
   130  125  129 1   
   131  125  130 1   
   132  126  131 1   
   133  132  133 1   
   134  132  137 1   
   135  133  134 1   
   136  133  136 1   
   137  133  138 1   
   138  134  135 2   
   139  134  142 1   
   140  136  139 1   
   141  136  140 1   
   142  136  141 1   
   143  142  143 1   
   144  142  147 1   
   145  143  144 1   
   146  143  146 1   
   147  143  148 1   
   148  144  145 2   
   149  144  152 1   
   150  146  149 1   
   151  146  150 1   
   152  146  151 1   
   153  152  153 1   
   154  152  161 1   
   155  153  154 1   
   156  153  156 1   
   157  153  162 1   
   158  154  155 2   
   159  154  167 1   
   160  156  157 1   
   161  156  163 1   
   162  156  164 1   
   163  157  158 1   
   164  157  165 1   
   165  157  166 1   
   166  158  159 1   
   167  158  160 1   
   168  167  168 1   
   169  167  172 1   
   170  168  169 1   
   171  168  170 1   
   172  168  171 1   
   173  174  175 1   
   174  174  176 1   
   175  177  178 1   
   176  177  179 1   
   177  180  181 1   
   178  180  182 1   
   179  183  184 1   
   180  183  185 1   
@<TRIPOS>SUBSTRUCTURE
     1 MOL         1 TEMP              0 ****  ****    0 ROOT
