@<TRIPOS>MOLECULE
MOL
  178   175     1     0     0
SMALL
resp


@<TRIPOS>ATOM
      1 C1          0.0340    6.8590   -1.1960 c3        1 MOL     -0.411694
      2 C2          1.5450    6.8130   -0.9140 c         1 MOL      0.676028
      3 O1          2.0250    7.3660    0.0440 o         1 MOL     -0.552587
      4 H1         -0.3210    5.8570   -1.4370 hc        1 MOL      0.106708
      5 H2         -0.4890    7.2260   -0.3130 hc        1 MOL      0.106708
      6 H3         -0.1590    7.5250   -2.0370 hc        1 MOL      0.106708
      7 N1          2.3300    6.0580   -1.8050 n         1 MOL     -0.528807
      8 C3          3.7140    5.7440   -1.5770 c3        1 MOL     -0.000748
      9 C4          3.9380    4.6340   -0.5090 c         1 MOL      0.635052
     10 O2          3.6790    3.4420   -0.6890 o         1 MOL     -0.542067
     11 C5          4.3440    5.2810   -2.9260 c3        1 MOL     -0.391284
     12 C6          5.7790    4.6840   -2.7790 c         1 MOL      0.792278
     13 O3          5.9030    3.6100   -3.4000 o         1 MOL     -0.732294
     14 O4          6.6710    5.2000   -2.1000 o         1 MOL     -0.732294
     15 H4          1.8010    5.5370   -2.4880 hn        1 MOL      0.297065
     16 H5          4.2150    6.6750   -1.3110 h1        1 MOL      0.110388
     17 H6          4.3350    6.2190   -3.4920 hc        1 MOL      0.077363
     18 H7          3.6210    4.6560   -3.4590 hc        1 MOL      0.077363
     19 N2          4.4490    4.9970    0.7020 n         1 MOL     -0.601106
     20 C7          4.7160    4.0410    1.8380 c3        1 MOL      0.567547
     21 C8          3.4140    3.6140    2.5640 c         1 MOL      0.384650
     22 O5          2.3870    4.2800    2.5930 o         1 MOL     -0.576526
     23 C9          5.7960    4.7610    2.6920 c3        1 MOL     -0.473035
     24 H8          4.4310    5.9740    0.9360 hn        1 MOL      0.286840
     25 H9          5.1090    3.1130    1.4340 h1        1 MOL     -0.013568
     26 H10         6.0160    4.1280    3.5520 hc        1 MOL      0.113503
     27 H11         6.6190    4.9780    2.0040 hc        1 MOL      0.113503
     28 H12         5.2640    5.6540    2.9960 hc        1 MOL      0.113503
     29 N3          3.3490    2.3990    3.0590 n         1 MOL     -0.358291
     30 C10         4.4090    1.3630    3.1390 c3        1 MOL      0.076615
     31 C11         4.4430    0.4640    1.9780 c         1 MOL      0.517177
     32 O6          3.4400    0.2520    1.3050 o         1 MOL     -0.578785
     33 C12         4.2860    0.5780    4.4390 c3        1 MOL     -0.229381
     34 C13         2.8510    0.2270    4.8590 c         1 MOL      0.638288
     35 O7          2.5220    0.1680    6.0730 o         1 MOL     -0.650998
     36 O8          1.9800   -0.0660    3.9730 o         1 MOL     -0.650998
     37 H13         2.4940    2.1770    3.5270 hn        1 MOL      0.309759
     38 H14         5.3590    1.8890    3.2840 h1        1 MOL      0.044188
     39 H15         4.7940    1.1780    5.1950 hc        1 MOL      0.041457
     40 H16         4.7880   -0.3930    4.4120 hc        1 MOL      0.041457
     41 N4          5.6260   -0.1240    1.7690 n         1 MOL     -0.595002
     42 C14         5.9220   -1.1200    0.7330 c3        1 MOL      0.394215
     43 C15         7.1410   -0.7260   -0.0170 c         1 MOL      0.483877
     44 O9          7.6040    0.4370    0.1300 o         1 MOL     -0.508919
     45 H17         6.3420    0.0760    2.4550 hn        1 MOL      0.292663
     46 H18         5.1530   -0.8940   -0.0150 h1        1 MOL      0.012991
     47 H19         6.0350   -2.1440    1.0760 h1        1 MOL      0.012991
     48 N5          7.6720   -1.6070   -0.8980 n         1 MOL     -0.671603
     49 C16         7.2320   -3.0160   -1.0730 c3        1 MOL      0.048441
     50 C17         6.1650   -3.0700   -2.1810 c         1 MOL      0.613910
     51 O10         5.8840   -4.1750   -2.6200 o         1 MOL     -0.543150
     52 C18         8.4470   -3.8900   -1.3470 c3        1 MOL     -0.306245
     53 C19         9.4840   -3.9590   -0.2180 c         1 MOL      0.746259
     54 N6          9.0730   -4.3230    0.9830 n         1 MOL     -0.841835
     55 O11        10.6720   -3.7890   -0.5120 o         1 MOL     -0.574306
     56 H20         8.4650   -1.1910   -1.3810 hn        1 MOL      0.368772
     57 H21         6.7210   -3.3990   -0.1910 h1        1 MOL      0.089161
     58 H22         8.9450   -3.5920   -2.2670 hc        1 MOL      0.109039
     59 H23         8.0820   -4.9050   -1.5060 hc        1 MOL      0.109039
     60 H24         8.1650   -4.7560    1.1030 hn        1 MOL      0.380579
     61 H25         9.6640   -4.1480    1.7780 hn        1 MOL      0.380579
     62 N7          5.5500   -2.0140   -2.6500 n         1 MOL     -0.388352
     63 C20         4.4520   -2.1580   -3.6930 c3        1 MOL     -0.042171
     64 C21         3.2380   -2.9010   -3.1830 c         1 MOL      0.519504
     65 O12         2.5330   -3.4870   -4.0530 o         1 MOL     -0.569950
     66 H26         5.6910   -1.1410   -2.1660 hn        1 MOL      0.309746
     67 H27         4.9140   -2.6600   -4.5470 h1        1 MOL      0.087636
     68 H28         4.0360   -1.1860   -3.9390 h1        1 MOL      0.087636
     69 N8          3.0120   -3.0540   -1.8860 n         1 MOL      0.037422
     70 C22         2.1000   -3.9820   -1.2010 c3        1 MOL     -0.534730
     71 C23         0.8510   -3.2830   -0.7620 c         1 MOL      0.702378
     72 O13         0.9380   -2.1660   -0.2540 o         1 MOL     -0.642231
     73 C24         2.7760   -4.6800   -0.0040 c3        1 MOL      0.485132
     74 C25         3.5460   -5.8580   -0.5290 c3        1 MOL     -0.500286
     75 O14         3.6460   -3.7560    0.6010 oh        1 MOL     -0.698938
     76 H29         3.6110   -2.5220   -1.2720 hn        1 MOL      0.024629
     77 H30         1.8140   -4.8230   -1.8300 h1        1 MOL      0.200709
     78 H31         2.0830   -4.9180    0.8050 h1        1 MOL      0.016972
     79 H32         3.1240   -3.1650    1.1530 ho        1 MOL      0.463803
     80 H33         2.9390   -6.4690   -1.1940 hc        1 MOL      0.125149
     81 H34         4.3980   -5.5570   -1.1340 hc        1 MOL      0.125149
     82 H35         3.7780   -6.4430    0.3620 hc        1 MOL      0.125149
     83 N9         -0.2850   -3.8710   -1.0410 n         1 MOL     -0.369617
     84 C26        -1.6190   -3.3040   -1.0160 c3        1 MOL     -0.140971
     85 C27        -2.3140   -3.4360    0.4080 c         1 MOL      0.542587
     86 O15        -2.4290   -4.5420    0.8980 o         1 MOL     -0.582695
     87 C28        -2.5520   -3.8620   -2.1790 c3        1 MOL      0.358621
     88 C29        -3.9170   -3.1720   -2.1310 c3        1 MOL     -0.088421
     89 C30        -2.0050   -3.7670   -3.5710 c3        1 MOL     -0.105426
     90 C31        -4.9580   -3.6650   -3.1600 c3        1 MOL     -0.257902
     91 H36        -0.1640   -4.8050   -1.4160 hn        1 MOL      0.216845
     92 H37        -1.3370   -2.2530   -1.1320 h1        1 MOL      0.144971
     93 H38        -2.7220   -4.9240   -2.0640 hc        1 MOL     -0.051699
     94 H39        -3.8520   -2.0850   -2.1280 hc        1 MOL      0.022973
     95 H40        -4.3980   -3.4350   -1.1840 hc        1 MOL      0.022973
     96 H41        -0.9350   -3.9420   -3.6590 hc        1 MOL      0.004355
     97 H42        -2.5470   -4.3460   -4.3050 hc        1 MOL      0.004355
     98 H43        -2.1070   -2.6990   -3.7730 hc        1 MOL      0.004355
     99 H44        -4.8890   -4.7500   -3.0880 hc        1 MOL      0.061276
    100 H45        -5.9530   -3.3120   -2.9290 hc        1 MOL      0.061276
    101 H46        -4.6550   -3.4390   -4.1890 hc        1 MOL      0.061276
    102 N10        -2.7550   -2.2960    1.0000 n         1 MOL     -0.033453
    103 C32        -3.6650   -2.3170    2.1200 c3        1 MOL     -0.030454
    104 C33        -5.1970   -2.1460    1.8900 c         1 MOL      0.475380
    105 O16        -6.0010   -2.5220    2.7120 o         1 MOL     -0.519879
    106 C34        -3.2270   -1.3380    3.1560 c3        1 MOL     -0.200382
    107 C35        -1.7460   -1.5370    3.5820 c         1 MOL      0.700020
    108 O17        -0.9420   -0.7320    3.1710 o         1 MOL     -0.680517
    109 O18        -1.5010   -2.4990    4.3100 o         1 MOL     -0.680517
    110 H47        -2.4460   -1.4270    0.5970 hn        1 MOL     -0.052638
    111 H48        -3.6180   -3.3130    2.5640 h1        1 MOL      0.069127
    112 H49        -3.9300   -1.3330    3.9880 hc        1 MOL      0.049951
    113 H50        -3.3930   -0.4140    2.6050 hc        1 MOL      0.049951
    114 N11        -5.6550   -1.4310    0.8500 n         1 MOL     -0.521472
    115 C36        -6.9470   -0.6350    0.7490 c3        1 MOL      0.417791
    116 C37        -6.6760    0.7680    0.1430 c         1 MOL      0.205514
    117 O19        -7.1920    1.1340   -0.8650 o         1 MOL     -0.461627
    118 C38        -7.8520   -1.4880   -0.1010 c3        1 MOL     -0.299381
    119 C39        -9.2430   -1.4840    0.4590 ca        1 MOL      0.030175
    120 C40        -9.5150   -2.0080    1.7680 ca        1 MOL     -0.090819
    121 C41       -10.3250   -0.8440   -0.2650 ca        1 MOL     -0.090819
    122 C42       -10.8080   -1.9790    2.2900 ca        1 MOL     -0.133351
    123 C43       -11.6130   -0.8330    0.1970 ca        1 MOL     -0.133351
    124 C44       -11.8230   -1.4070    1.4260 ca        1 MOL     -0.152543
    125 H51        -4.8900   -1.0210    0.3320 hn        1 MOL      0.296178
    126 H52        -7.4570   -0.5260    1.7090 h1        1 MOL      0.027780
    127 H53        -7.5470   -2.5250   -0.1790 hc        1 MOL      0.112276
    128 H54        -7.9150   -1.1620   -1.1370 hc        1 MOL      0.112276
    129 H55        -8.6840   -2.3440    2.3810 ha        1 MOL      0.093775
    130 H56       -10.1160   -0.5840   -1.2940 ha        1 MOL      0.093775
    131 H57       -11.0030   -2.4230    3.2580 ha        1 MOL      0.115449
    132 H58       -12.4900   -0.5680   -0.3800 ha        1 MOL      0.115449
    133 H59       -12.8470   -1.6850    1.6580 ha        1 MOL      0.085377
    134 N12        -5.8630    1.6070    0.8460 n         1 MOL      0.064640
    135 C45        -5.8280    3.0490    0.4340 c3        1 MOL     -0.066703
    136 C46        -5.2810    3.2510   -1.0350 c         1 MOL      0.328011
    137 O20        -5.7300    4.1190   -1.7550 o         1 MOL     -0.495281
    138 C47        -5.0050    3.7230    1.4880 c3        1 MOL     -0.019387
    139 C48        -5.4770    3.0400    2.7400 c3        1 MOL     -0.172327
    140 C49        -5.4180    1.5980    2.2290 c3        1 MOL     -0.121600
    141 H60        -6.8270    3.4660    0.4510 h1        1 MOL      0.091823
    142 H61        -3.9200    3.6640    1.3390 hc        1 MOL      0.043295
    143 H62        -5.3180    4.7660    1.3910 hc        1 MOL      0.043295
    144 H63        -4.7690    3.2080    3.5460 hc        1 MOL      0.071064
    145 H64        -6.4960    3.3570    2.9660 hc        1 MOL      0.071064
    146 H65        -4.3660    1.2860    2.2230 h1        1 MOL      0.083778
    147 H66        -6.0350    0.9240    2.8250 h1        1 MOL      0.083778
    148 N13        -4.4800    2.3200   -1.5300 n         1 MOL     -0.040961
    149 C50        -3.9950    2.2360   -2.8780 c3        1 MOL     -0.452166
    150 C51        -5.0420    2.1230   -3.8990 c         1 MOL      0.651474
    151 O21        -5.0560    2.9080   -4.8540 o         1 MOL     -0.565581
    152 C52        -2.9030    1.1830   -3.0640 c3        1 MOL      0.190104
    153 C53        -1.7870    1.2500   -1.9750 c3        1 MOL     -0.298564
    154 C54        -2.1040    0.4360   -0.6690 c         1 MOL      0.717964
    155 O22        -1.1170   -0.0040   -0.0160 o         1 MOL     -0.695437
    156 O23        -3.3070    0.1540   -0.4250 o         1 MOL     -0.695437
    157 H67        -4.2970    1.5450   -0.8970 hn        1 MOL      0.187357
    158 H68        -3.4290    3.1240   -3.1410 h1        1 MOL      0.159240
    159 H69        -2.4300    1.3210   -4.0410 hc        1 MOL     -0.020900
    160 H70        -3.3500    0.1950   -3.1920 hc        1 MOL     -0.020900
    161 H71        -1.3340    2.2250   -1.8260 hc        1 MOL      0.095651
    162 H72        -1.0080    0.6910   -2.5020 hc        1 MOL      0.095651
    163 N14        -5.9550    1.1550   -3.7170 n         1 MOL     -0.316790
    164 C55        -7.1630    0.9310   -4.5570 c3        1 MOL     -0.186840
    165 H73        -8.0290    1.3850   -4.0750 h1        1 MOL      0.084072
    166 H74        -7.0130    1.3850   -5.5370 h1        1 MOL      0.084072
    167 H75        -7.3320   -0.1390   -4.6730 h1        1 MOL      0.084072
    168 H76        -5.8560    0.5000   -2.9530 hn        1 MOL      0.301243
    169 Ca1         0.8320   -0.1810    1.4380 Ca        1 MOL      1.822997
    170 O24         0.5160    2.3460    2.7060 oh        1 MOL     -1.008720
    171 H77        -0.2610    2.6810    3.1370 ho        1 MOL      0.469453
    172 H78         1.0800    3.1140    2.5840 ho        1 MOL      0.469453
    173 O25         1.8560   -2.7610    2.3910 oh        1 MOL     -1.008720
    174 H79         1.3570   -3.5530    2.5800 ho        1 MOL      0.469453
    175 H80         2.5450   -2.7430    3.0680 ho        1 MOL      0.469453
    176 O26         1.5770    1.4440   -0.8750 oh        1 MOL     -1.008720
    177 H81         2.3870    1.8300   -0.5610 ho        1 MOL      0.469453
    178 H82         1.4520    1.8160   -1.7460 ho        1 MOL      0.469453
@<TRIPOS>BOND
     1    1    2 1   
     2    1    4 1   
     3    1    5 1   
     4    1    6 1   
     5    2    3 2   
     6    2    7 1   
     7    7    8 1   
     8    7   15 1   
     9    8    9 1   
    10    8   11 1   
    11    8   16 1   
    12    9   10 2   
    13    9   19 1   
    14   11   12 1   
    15   11   17 1   
    16   11   18 1   
    17   12   13 1   
    18   12   14 1   
    19   19   20 1   
    20   19   24 1   
    21   20   21 1   
    22   20   23 1   
    23   20   25 1   
    24   21   22 2   
    25   21   29 1   
    26   23   26 1   
    27   23   27 1   
    28   23   28 1   
    29   29   30 1   
    30   29   37 1   
    31   30   31 1   
    32   30   33 1   
    33   30   38 1   
    34   31   32 2   
    35   31   41 1   
    36   33   34 1   
    37   33   39 1   
    38   33   40 1   
    39   34   35 1   
    40   34   36 1   
    41   41   42 1   
    42   41   45 1   
    43   42   43 1   
    44   42   46 1   
    45   42   47 1   
    46   43   44 2   
    47   43   48 1   
    48   48   49 1   
    49   48   56 1   
    50   49   50 1   
    51   49   52 1   
    52   49   57 1   
    53   50   51 2   
    54   50   62 1   
    55   52   53 1   
    56   52   58 1   
    57   52   59 1   
    58   53   54 1   
    59   53   55 2   
    60   54   60 1   
    61   54   61 1   
    62   62   63 1   
    63   62   66 1   
    64   63   64 1   
    65   63   67 1   
    66   63   68 1   
    67   64   65 2   
    68   64   69 1   
    69   69   70 1   
    70   69   76 1   
    71   70   71 1   
    72   70   73 1   
    73   70   77 1   
    74   71   72 2   
    75   71   83 1   
    76   73   74 1   
    77   73   75 1   
    78   73   78 1   
    79   74   80 1   
    80   74   81 1   
    81   74   82 1   
    82   75   79 1   
    83   83   84 1   
    84   83   91 1   
    85   84   85 1   
    86   84   87 1   
    87   84   92 1   
    88   85   86 2   
    89   85  102 1   
    90   87   88 1   
    91   87   89 1   
    92   87   93 1   
    93   88   90 1   
    94   88   94 1   
    95   88   95 1   
    96   89   96 1   
    97   89   97 1   
    98   89   98 1   
    99   90   99 1   
   100   90  100 1   
   101   90  101 1   
   102  102  103 1   
   103  102  110 1   
   104  103  104 1   
   105  103  106 1   
   106  103  111 1   
   107  104  105 2   
   108  104  114 1   
   109  106  107 1   
   110  106  112 1   
   111  106  113 1   
   112  107  108 1   
   113  107  109 1   
   114  114  115 1   
   115  114  125 1   
   116  115  116 1   
   117  115  118 1   
   118  115  126 1   
   119  116  117 2   
   120  116  134 1   
   121  118  119 1   
   122  118  127 1   
   123  118  128 1   
   124  119  120 ar  
   125  119  121 ar  
   126  120  122 ar  
   127  120  129 1   
   128  121  123 ar  
   129  121  130 1   
   130  122  124 ar  
   131  122  131 1   
   132  123  124 ar  
   133  123  132 1   
   134  124  133 1   
   135  134  135 1   
   136  134  140 1   
   137  135  136 1   
   138  135  138 1   
   139  135  141 1   
   140  136  137 2   
   141  136  148 1   
   142  138  139 1   
   143  138  142 1   
   144  138  143 1   
   145  139  140 1   
   146  139  144 1   
   147  139  145 1   
   148  140  146 1   
   149  140  147 1   
   150  148  149 1   
   151  148  157 1   
   152  149  150 1   
   153  149  152 1   
   154  149  158 1   
   155  150  151 2   
   156  150  163 1   
   157  152  153 1   
   158  152  159 1   
   159  152  160 1   
   160  153  154 1   
   161  153  161 1   
   162  153  162 1   
   163  154  155 1   
   164  154  156 1   
   165  163  164 1   
   166  163  168 1   
   167  164  165 1   
   168  164  166 1   
   169  164  167 1   
   170  170  171 1   
   171  170  172 1   
   172  173  174 1   
   173  173  175 1   
   174  176  177 1   
   175  176  178 1   
@<TRIPOS>SUBSTRUCTURE
     1 MOL         1 TEMP              0 ****  ****    0 ROOT
