@<TRIPOS>MOLECULE
MOL
  185   180     1     0     0
SMALL
resp


@<TRIPOS>ATOM
      1 C1          5.8020   -0.2710    5.5220 c3        1 MOL     -0.378661
      2 C2          5.2460   -0.2750    4.0970 c         1 MOL      0.704856
      3 O1          4.0890   -0.6490    3.8560 o         1 MOL     -0.618312
      4 H1          5.4260   -1.1400    6.0610 hc        1 MOL      0.094059
      5 H2          6.8910   -0.3090    5.4880 hc        1 MOL      0.094059
      6 H3          5.4860    0.6380    6.0340 hc        1 MOL      0.094059
      7 N1          6.1510   -0.0110    3.1260 n         1 MOL     -0.559451
      8 C3          5.7450    0.0750    1.7230 c3        1 MOL      0.033126
      9 C4          5.0820   -1.1800    1.0910 c         1 MOL      0.419901
     10 O2          4.0890   -1.0760    0.3760 o         1 MOL     -0.512038
     11 C5          6.8970    0.5810    0.8580 c3        1 MOL     -0.141168
     12 C6          8.2080   -0.2440    0.7930 c         1 MOL      0.662161
     13 O3          8.2590   -1.3080    1.4480 o         1 MOL     -0.651144
     14 O4          9.1890    0.0970    0.1040 o         1 MOL     -0.651144
     15 H4          7.1070    0.1830    3.3920 hn        1 MOL      0.321575
     16 H5          4.9860    0.8570    1.7390 h1        1 MOL      0.088017
     17 H6          7.1720    1.5980    1.1590 hc        1 MOL      0.043590
     18 H7          6.4250    0.7480   -0.1120 hc        1 MOL      0.043590
     19 N2          5.5700   -2.4110    1.4970 n         1 MOL     -0.202313
     20 C7          5.0360   -3.7110    1.0640 c3        1 MOL      0.073451
     21 C8          5.0990   -3.6890   -0.4510 c         1 MOL      0.494578
     22 O5          6.1600   -4.0060   -1.0280 o         1 MOL     -0.521332
     23 C9          5.8010   -4.8340    1.8380 c3        1 MOL     -0.233053
     24 C10         5.2830   -5.1080    3.2310 c3        1 MOL      0.155859
     25 C11         6.1170   -5.7620    4.3820 c3        1 MOL      0.015642
     26 C12         6.3010   -7.3180    4.1490 c3        1 MOL      0.004990
     27 N3          6.8370   -7.9510    5.3270 n4        1 MOL     -0.112294
     28 H8          6.4340   -2.4700    2.0130 hn        1 MOL      0.222335
     29 H9          3.9870   -3.8020    1.3580 h1        1 MOL      0.035347
     30 H10         6.8570   -4.5740    1.9480 hc        1 MOL      0.075937
     31 H11         5.6780   -5.8060    1.3570 hc        1 MOL      0.075937
     32 H12         4.2880   -5.5660    3.2450 hc        1 MOL     -0.024202
     33 H13         5.1990   -4.1170    3.6660 hc        1 MOL     -0.024202
     34 H14         5.4940   -5.6880    5.2790 hc        1 MOL      0.020103
     35 H15         7.1060   -5.3400    4.5270 hc        1 MOL      0.020103
     36 H16         7.0210   -7.5500    3.3670 hx        1 MOL      0.069671
     37 H17         5.3420   -7.7910    3.9530 hx        1 MOL      0.069671
     38 H18         6.0400   -7.9730    5.9480 hn        1 MOL      0.241484
     39 H19         7.1370   -8.9040    5.2280 hn        1 MOL      0.241484
     40 H20         7.4780   -7.3490    5.8280 hn        1 MOL      0.241484
     41 N4          3.9560   -3.4840   -1.1390 n         1 MOL     -0.342630
     42 C13         3.7100   -3.4590   -2.5660 c3        1 MOL      0.082245
     43 C14         4.1760   -2.1670   -3.2690 c         1 MOL      0.392295
     44 O6          4.4870   -2.2670   -4.4420 o         1 MOL     -0.520636
     45 C15         2.3030   -3.6440   -2.8840 c3        1 MOL     -0.405052
     46 C16         1.2750   -2.6850   -2.2360 c         1 MOL      0.801675
     47 O7          1.0380   -2.7840   -0.9980 o         1 MOL     -0.737416
     48 O8          0.7370   -1.7300   -2.8990 o         1 MOL     -0.737416
     49 H21         3.1050   -3.3690   -0.6060 hn        1 MOL      0.204204
     50 H22         4.2150   -4.3210   -3.0170 h1        1 MOL      0.096522
     51 H23         2.0350   -4.6330   -2.4890 hc        1 MOL      0.119375
     52 H24         2.1710   -3.5700   -3.9600 hc        1 MOL      0.119375
     53 N5          4.1490   -1.0690   -2.5600 n         1 MOL     -0.198406
     54 C17         4.5190    0.2590   -3.0320 c3        1 MOL      0.010603
     55 C18         6.0070    0.4930   -2.7610 c         1 MOL      0.470078
     56 O9          6.7940   -0.4150   -2.5930 o         1 MOL     -0.452119
     57 H25         3.9020   -1.1740   -1.5820 hn        1 MOL      0.199286
     58 H26         3.8820    0.9930   -2.5420 h1        1 MOL      0.053464
     59 H27         4.3360    0.2730   -4.1150 h1        1 MOL      0.053464
     60 N6          6.4970    1.6830   -2.7250 n         1 MOL     -0.542415
     61 C19         5.8470    2.9300   -2.8940 c3        1 MOL      0.473452
     62 C20         5.9600    3.5850   -1.5230 c         1 MOL      0.310592
     63 O10         7.0460    4.1690   -1.2390 o         1 MOL     -0.511073
     64 C21         6.4600    3.7520   -4.0100 c3        1 MOL     -0.294188
     65 C22         6.0640    3.1990   -5.3390 c         1 MOL      0.705665
     66 N7          6.8140    2.2550   -5.8150 n         1 MOL     -0.804061
     67 O11         5.0880    3.6490   -5.8220 o         1 MOL     -0.588985
     68 H28         7.4790    1.6970   -2.4660 hn        1 MOL      0.303781
     69 H29         4.8150    2.8840   -3.2460 h1        1 MOL     -0.028862
     70 H30         7.5520    3.7310   -3.9320 hc        1 MOL      0.070881
     71 H31         6.0390    4.7440   -3.9580 hc        1 MOL      0.070881
     72 H32         7.6130    1.9970   -5.2640 hn        1 MOL      0.383059
     73 H33         6.5120    1.8340   -6.6850 hn        1 MOL      0.383059
     74 N8          4.8970    3.7170   -0.7060 n         1 MOL     -0.381936
     75 C23         3.5320    3.2460   -0.8730 c3        1 MOL     -0.032224
     76 C24         2.4560    3.9390   -0.0640 c         1 MOL      0.665462
     77 O12         2.6430    4.9650    0.5880 o         1 MOL     -0.551052
     78 H34         5.0690    4.1990    0.1680 hn        1 MOL      0.299656
     79 H35         3.6330    2.2350   -0.4670 h1        1 MOL      0.045127
     80 H36         3.2270    3.2310   -1.9150 h1        1 MOL      0.045127
     81 N9          1.2570    3.3990   -0.1570 n         1 MOL     -0.601024
     82 C25         0.0830    3.9420    0.6620 c3        1 MOL      0.229773
     83 C26        -1.1000    2.9570    0.7900 c         1 MOL      0.484390
     84 O13        -1.2030    1.9500    0.0830 o         1 MOL     -0.502260
     85 C27        -0.4860    5.2410    0.1600 c3        1 MOL     -0.117714
     86 C28        -1.1370    6.1690    1.2270 ca        1 MOL     -0.054177
     87 C29        -2.5060    6.4920    1.1990 ca        1 MOL     -0.071567
     88 C30        -0.3130    6.6740    2.2700 ca        1 MOL     -0.071567
     89 C31        -3.0910    7.2110    2.2970 ca        1 MOL     -0.327757
     90 C32        -0.9160    7.2640    3.4170 ca        1 MOL     -0.327757
     91 C33        -2.2860    7.6270    3.4200 ca        1 MOL      0.387715
     92 O14        -2.8390    8.1750    4.4910 oh        1 MOL     -0.497423
     93 H37         1.0890    2.5850   -0.7210 hn        1 MOL      0.272920
     94 H38         0.5490    4.1950    1.6090 h1        1 MOL      0.025024
     95 H39        -1.2070    4.9340   -0.5930 hc        1 MOL      0.073712
     96 H40         0.1930    5.7930   -0.4980 hc        1 MOL      0.073712
     97 H41        -3.1410    6.0440    0.4500 ha        1 MOL      0.133550
     98 H42         0.7620    6.5720    2.3100 ha        1 MOL      0.133550
     99 H43        -4.1340    7.4600    2.1680 ha        1 MOL      0.158925
    100 H44        -0.2460    7.4230    4.2510 ha        1 MOL      0.158925
    101 H45        -2.2490    8.5000    5.1620 ho        1 MOL      0.385986
    102 N10        -2.0990    3.2010    1.6600 n         1 MOL     -0.576436
    103 C34        -3.3300    2.3970    1.7970 c3        1 MOL      0.202371
    104 C35        -4.4340    2.8060    0.8300 c         1 MOL      0.513488
    105 O15        -4.3680    3.8500    0.1760 o         1 MOL     -0.519843
    106 C36        -3.8020    2.4740    3.2320 c3        1 MOL     -0.035405
    107 C37        -3.0540    1.6670    4.2470 c3        1 MOL     -0.037571
    108 C38        -3.8550    3.8890    3.8050 c3        1 MOL     -0.080590
    109 C39        -3.9770    1.4300    5.4670 c3        1 MOL     -0.208224
    110 H46        -2.1050    4.0450    2.2020 hn        1 MOL      0.283976
    111 H47        -3.1270    1.3330    1.6760 h1        1 MOL      0.059842
    112 H48        -4.8410    2.1340    3.1620 hc        1 MOL      0.050522
    113 H49        -2.0910    2.0540    4.5750 hc        1 MOL      0.043392
    114 H50        -2.7840    0.7060    3.8280 hc        1 MOL      0.043392
    115 H51        -2.8600    4.3190    3.8770 hc        1 MOL      0.041013
    116 H52        -4.4610    4.5240    3.1570 hc        1 MOL      0.041013
    117 H53        -4.3450    4.0340    4.7720 hc        1 MOL      0.041013
    118 H54        -3.9000    2.1890    6.2450 hc        1 MOL      0.056386
    119 H55        -5.0250    1.2850    5.1870 hc        1 MOL      0.056386
    120 H56        -3.6320    0.5210    5.9610 hc        1 MOL      0.056386
    121 N11        -5.3960    1.9620    0.6210 n         1 MOL     -0.713953
    122 C40        -6.3820    2.1180   -0.4570 c3        1 MOL      0.762939
    123 C41        -6.5230    0.8380   -1.2560 c         1 MOL      0.085786
    124 O16        -6.1820   -0.2410   -0.7480 o         1 MOL     -0.288726
    125 C42        -7.7050    2.4060    0.1630 c3        1 MOL      0.044421
    126 O17        -7.8050    3.7710    0.7210 oh        1 MOL     -0.563669
    127 H57        -5.3230    1.0950    1.1290 hn        1 MOL      0.282763
    128 H58        -6.1560    2.8890   -1.1930 h1        1 MOL     -0.042977
    129 H59        -7.9750    1.6340    0.8730 h1        1 MOL      0.003471
    130 H60        -8.3180    2.3550   -0.7370 h1        1 MOL      0.003471
    131 H61        -8.4040    3.5800    1.4420 ho        1 MOL      0.385911
    132 N12        -6.9310    0.8770   -2.5090 n         1 MOL     -0.462481
    133 C43        -6.9290   -0.2550   -3.4080 c3        1 MOL      0.072132
    134 C44        -7.5470   -1.5740   -2.9850 c         1 MOL      0.335942
    135 O18        -7.2960   -2.6670   -3.4940 o         1 MOL     -0.396268
    136 C45        -5.3570   -0.4120   -3.9270 c3        1 MOL     -0.330053
    137 H62        -7.0780    1.8410   -2.7910 hn        1 MOL      0.313897
    138 H63        -7.4570    0.0940   -4.2870 h1        1 MOL      0.114628
    139 H64        -4.9930    0.5270   -4.3490 hc        1 MOL      0.119376
    140 H65        -4.7330   -0.6920   -3.0780 hc        1 MOL      0.119376
    141 H66        -5.3800   -1.1320   -4.7390 hc        1 MOL      0.119376
    142 N13        -8.5290   -1.5290   -2.0720 n         1 MOL     -0.351720
    143 C46        -9.3140   -2.6670   -1.6630 c3        1 MOL      0.301832
    144 C47        -8.4880   -3.7330   -0.9960 c         1 MOL      0.272512
    145 O19        -8.8450   -4.9140   -1.0460 o         1 MOL     -0.467852
    146 C48       -10.3230   -3.1300   -2.6690 c3        1 MOL     -0.275643
    147 H67        -8.9360   -0.6510   -1.7980 hn        1 MOL      0.228394
    148 H68        -9.9840   -2.3260   -0.8760 h1        1 MOL      0.003422
    149 H69       -11.1690   -3.7100   -2.3080 hc        1 MOL      0.075272
    150 H70       -10.8460   -2.2490   -3.0570 hc        1 MOL      0.075272
    151 H71        -9.8000   -3.5730   -3.5190 hc        1 MOL      0.075272
    152 N14        -7.3360   -3.3220   -0.4590 n         1 MOL     -0.021248
    153 C49        -6.3950   -4.3030    0.0140 c3        1 MOL     -0.323310
    154 C50        -6.8110   -4.9280    1.3690 c         1 MOL      0.534819
    155 O20        -6.9200   -6.1640    1.5420 o         1 MOL     -0.521656
    156 C51        -5.0730   -3.6800    0.2350 c3        1 MOL      0.095797
    157 C52        -4.4500   -3.2030   -1.0720 c3        1 MOL      0.300349
    158 C53        -3.1070   -2.5880   -0.7350 c         1 MOL      0.557380
    159 O21        -2.9860   -1.5790    0.0100 o         1 MOL     -0.744896
    160 O22        -2.0970   -2.8480   -1.4620 o         1 MOL     -0.744896
    161 H72        -7.2580   -2.3200   -0.3710 hn        1 MOL      0.048019
    162 H73        -6.1830   -4.9930   -0.7970 h1        1 MOL      0.201880
    163 H74        -4.4470   -4.4090    0.7440 hc        1 MOL     -0.042148
    164 H75        -5.1630   -2.7740    0.8300 hc        1 MOL     -0.042148
    165 H76        -5.1130   -2.5260   -1.6250 hc        1 MOL     -0.073680
    166 H77        -4.3740   -4.1280   -1.6280 hc        1 MOL     -0.073680
    167 N15        -7.1940   -4.1220    2.3800 n         1 MOL     -0.313053
    168 C54        -7.6540   -4.5390    3.6500 c3        1 MOL     -0.158344
    169 H78        -7.3310   -5.5640    3.8340 h1        1 MOL      0.085574
    170 H79        -7.2440   -3.8850    4.4190 h1        1 MOL      0.085574
    171 H80        -8.7430   -4.4930    3.6750 h1        1 MOL      0.085574
    172 H81        -7.1020   -3.1360    2.2290 hn        1 MOL      0.254287
    173 Ca1        -0.6580   -0.6880   -0.9540 Ca        1 MOL      1.745287
    174 O23        -0.5180   -1.2720    1.7410 oh        1 MOL     -0.835878
    175 H82        -1.2380   -1.6780    2.2190 ho        1 MOL      0.408656
    176 H83         0.2490   -1.8080    1.9550 ho        1 MOL      0.408656
    177 O24         0.3190    1.3250   -2.3810 oh        1 MOL     -0.835878
    178 H84        -0.2390    2.0710   -2.5870 ho        1 MOL      0.408656
    179 H85         1.0070    1.3570   -3.0530 ho        1 MOL      0.408656
    180 O25        -2.5280    0.0830   -2.7070 oh        1 MOL     -0.835878
    181 H86        -2.9270    0.9460   -2.6010 ho        1 MOL      0.408656
    182 H87        -2.5580   -0.0710   -3.6540 ho        1 MOL      0.408656
    183 O26         1.6660   -0.0630    0.2720 oh        1 MOL     -0.835878
    184 H88         2.4790   -0.5550    0.2470 ho        1 MOL      0.408656
    185 H89         1.7030    0.4180    1.1060 ho        1 MOL      0.408656
@<TRIPOS>BOND
     1    1    2 1   
     2    1    4 1   
     3    1    5 1   
     4    1    6 1   
     5    2    3 2   
     6    2    7 1   
     7    7    8 1   
     8    7   15 1   
     9    8    9 1   
    10    8   11 1   
    11    8   16 1   
    12    9   10 2   
    13    9   19 1   
    14   11   12 1   
    15   11   17 1   
    16   11   18 1   
    17   12   13 1   
    18   12   14 1   
    19   19   20 1   
    20   19   28 1   
    21   20   21 1   
    22   20   23 1   
    23   20   29 1   
    24   21   22 2   
    25   21   41 1   
    26   23   24 1   
    27   23   30 1   
    28   23   31 1   
    29   24   25 1   
    30   24   32 1   
    31   24   33 1   
    32   25   26 1   
    33   25   34 1   
    34   25   35 1   
    35   26   27 1   
    36   26   36 1   
    37   26   37 1   
    38   27   38 1   
    39   27   39 1   
    40   27   40 1   
    41   41   42 1   
    42   41   49 1   
    43   42   43 1   
    44   42   45 1   
    45   42   50 1   
    46   43   44 2   
    47   43   53 1   
    48   45   46 1   
    49   45   51 1   
    50   45   52 1   
    51   46   47 1   
    52   46   48 1   
    53   53   54 1   
    54   53   57 1   
    55   54   55 1   
    56   54   58 1   
    57   54   59 1   
    58   55   56 2   
    59   55   60 1   
    60   60   61 1   
    61   60   68 1   
    62   61   62 1   
    63   61   64 1   
    64   61   69 1   
    65   62   63 2   
    66   62   74 1   
    67   64   65 1   
    68   64   70 1   
    69   64   71 1   
    70   65   66 1   
    71   65   67 2   
    72   66   72 1   
    73   66   73 1   
    74   74   75 1   
    75   74   78 1   
    76   75   76 1   
    77   75   79 1   
    78   75   80 1   
    79   76   77 2   
    80   76   81 1   
    81   81   82 1   
    82   81   93 1   
    83   82   83 1   
    84   82   85 1   
    85   82   94 1   
    86   83   84 2   
    87   83  102 1   
    88   85   86 1   
    89   85   95 1   
    90   85   96 1   
    91   86   87 ar  
    92   86   88 ar  
    93   87   89 ar  
    94   87   97 1   
    95   88   90 ar  
    96   88   98 1   
    97   89   91 ar  
    98   89   99 1   
    99   90   91 ar  
   100   90  100 1   
   101   91   92 1   
   102   92  101 1   
   103  102  103 1   
   104  102  110 1   
   105  103  104 1   
   106  103  106 1   
   107  103  111 1   
   108  104  105 2   
   109  104  121 1   
   110  106  107 1   
   111  106  108 1   
   112  106  112 1   
   113  107  109 1   
   114  107  113 1   
   115  107  114 1   
   116  108  115 1   
   117  108  116 1   
   118  108  117 1   
   119  109  118 1   
   120  109  119 1   
   121  109  120 1   
   122  121  122 1   
   123  121  127 1   
   124  122  123 1   
   125  122  125 1   
   126  122  128 1   
   127  123  124 2   
   128  123  132 1   
   129  125  126 1   
   130  125  129 1   
   131  125  130 1   
   132  126  131 1   
   133  132  133 1   
   134  132  137 1   
   135  133  134 1   
   136  133  136 1   
   137  133  138 1   
   138  134  135 2   
   139  134  142 1   
   140  136  139 1   
   141  136  140 1   
   142  136  141 1   
   143  142  143 1   
   144  142  147 1   
   145  143  144 1   
   146  143  146 1   
   147  143  148 1   
   148  144  145 2   
   149  144  152 1   
   150  146  149 1   
   151  146  150 1   
   152  146  151 1   
   153  152  153 1   
   154  152  161 1   
   155  153  154 1   
   156  153  156 1   
   157  153  162 1   
   158  154  155 2   
   159  154  167 1   
   160  156  157 1   
   161  156  163 1   
   162  156  164 1   
   163  157  158 1   
   164  157  165 1   
   165  157  166 1   
   166  158  159 1   
   167  158  160 1   
   168  167  168 1   
   169  167  172 1   
   170  168  169 1   
   171  168  170 1   
   172  168  171 1   
   173  174  175 1   
   174  174  176 1   
   175  177  178 1   
   176  177  179 1   
   177  180  181 1   
   178  180  182 1   
   179  183  184 1   
   180  183  185 1   
@<TRIPOS>SUBSTRUCTURE
     1 MOL         1 TEMP              0 ****  ****    0 ROOT
