@<TRIPOS>MOLECULE
MOL
  192   187     1     0     0
SMALL
resp


@<TRIPOS>ATOM
      1 C1        -12.2410    6.4500    1.4020 c3        1 MOL     -0.313229
      2 C2        -12.0230    5.0010    0.9530 c         1 MOL      0.681091
      3 O1        -13.0450    4.3230    0.7170 o         1 MOL     -0.559422
      4 H1        -11.8910    7.1270    0.6240 hc        1 MOL      0.085946
      5 H2        -13.3030    6.6200    1.5810 hc        1 MOL      0.085946
      6 H3        -11.6830    6.6340    2.3200 hc        1 MOL      0.085946
      7 N1        -10.7870    4.5010    0.6290 n         1 MOL     -0.396543
      8 C3        -10.4850    3.2070    0.1300 c3        1 MOL     -0.372567
      9 C4         -9.1560    2.5370    0.6790 c         1 MOL      0.811039
     10 O2         -8.2500    3.2480    0.9440 o         1 MOL     -0.575325
     11 C5        -10.4170    3.2670   -1.4640 c3        1 MOL     -0.006058
     12 C6         -9.5490    4.3900   -2.1160 c         1 MOL      0.693716
     13 O3         -8.8000    5.0920   -1.3090 o         1 MOL     -0.697499
     14 O4         -9.5310    4.5670   -3.3850 o         1 MOL     -0.697499
     15 H4         -9.9870    5.0230    0.9420 hn        1 MOL      0.167504
     16 H5        -11.3150    2.5330    0.3730 h1        1 MOL      0.134824
     17 H6        -11.4340    3.4070   -1.8130 hc        1 MOL      0.058885
     18 H7        -10.0730    2.3130   -1.8620 hc        1 MOL      0.058885
     19 N2         -9.1250    1.1800    0.7700 n         1 MOL     -0.648604
     20 C7         -8.0400    0.3630    1.2540 c3        1 MOL      0.229331
     21 C8         -7.1600    0.0360    0.0180 c         1 MOL      0.517899
     22 O5         -7.6750   -0.2840   -1.0370 o         1 MOL     -0.490240
     23 C9         -8.5350   -0.8950    1.9370 c3        1 MOL     -0.220580
     24 C10        -7.5130   -2.0500    2.1630 c3        1 MOL      0.011513
     25 C11        -6.8840   -2.8360    0.9620 c3        1 MOL     -0.001696
     26 C12        -6.5160   -4.2580    1.4380 c3        1 MOL      0.104544
     27 N3         -5.7560   -4.9390    0.4020 n4        1 MOL     -0.323635
     28 H8        -10.0140    0.7460    0.5670 hn        1 MOL      0.328745
     29 H9         -7.4970    0.9530    1.9910 h1        1 MOL      0.012943
     30 H10        -9.2510   -1.3920    1.2830 hc        1 MOL      0.086841
     31 H11        -8.9770   -0.6290    2.9020 hc        1 MOL      0.086841
     32 H12        -7.9880   -2.7940    2.8080 hc        1 MOL      0.014190
     33 H13        -6.7100   -1.6330    2.7670 hc        1 MOL      0.014190
     34 H14        -5.9560   -2.3370    0.6990 hc        1 MOL      0.046878
     35 H15        -7.5720   -2.9530    0.1200 hc        1 MOL      0.046878
     36 H16        -7.3760   -4.8030    1.8100 hx        1 MOL      0.030806
     37 H17        -5.7930   -4.2210    2.2570 hx        1 MOL      0.030806
     38 H18        -4.8920   -4.4240    0.2620 hn        1 MOL      0.311647
     39 H19        -5.3750   -5.8170    0.7020 hn        1 MOL      0.311647
     40 H20        -6.2460   -5.0410   -0.4750 hn        1 MOL      0.311647
     41 N4         -5.8510    0.0940    0.1370 n         1 MOL     -0.557402
     42 C13        -4.8560   -0.0960   -0.8670 c3        1 MOL      0.076598
     43 C14        -3.4370   -0.2520   -0.2830 c         1 MOL      0.485061
     44 O6         -3.0430    0.3420    0.7130 o         1 MOL     -0.516476
     45 C15        -4.9590    0.9560   -2.0040 c3        1 MOL      0.059851
     46 C16        -5.3650    2.3310   -1.4490 c         1 MOL      0.487618
     47 O7         -4.6590    2.9540   -0.6140 o         1 MOL     -0.670830
     48 O8         -6.4470    2.8890   -1.8300 o         1 MOL     -0.670830
     49 H21        -5.5610    0.4010    1.0570 hn        1 MOL      0.258986
     50 H22        -5.1260   -1.0200   -1.3750 h1        1 MOL      0.038369
     51 H23        -5.6790    0.5420   -2.7150 hc        1 MOL      0.026965
     52 H24        -3.9440    0.9630   -2.4120 hc        1 MOL      0.026965
     53 N5         -2.5380   -0.9930   -0.9340 n         1 MOL     -0.345899
     54 C17        -2.7200   -1.9370   -2.0800 c3        1 MOL      0.050610
     55 C18        -3.2020   -3.3380   -1.7010 c         1 MOL      0.441440
     56 O9         -3.6390   -3.6660   -0.5520 o         1 MOL     -0.559790
     57 H25        -1.7240   -1.1860   -0.3600 hn        1 MOL      0.213509
     58 H26        -1.8000   -1.9430   -2.6570 h1        1 MOL      0.055433
     59 H27        -3.4710   -1.5310   -2.7540 h1        1 MOL      0.055433
     60 N6         -3.2330   -4.2110   -2.7350 n         1 MOL     -0.365030
     61 C19        -3.4560   -5.6620   -2.5140 c3        1 MOL      0.050840
     62 C20        -2.3070   -6.2340   -1.7220 c         1 MOL      0.353861
     63 O10        -2.6010   -6.8450   -0.7170 o         1 MOL     -0.470874
     64 C21        -3.5180   -6.3670   -3.9240 c3        1 MOL     -0.313498
     65 C22        -3.5160   -7.9550   -3.8220 c         1 MOL      0.789178
     66 O11        -4.3290   -8.4280   -3.0050 o         1 MOL     -0.704475
     67 O12        -2.8580   -8.6420   -4.6310 o         1 MOL     -0.704475
     68 H28        -2.9190   -3.9040   -3.6500 hn        1 MOL      0.269481
     69 H29        -4.3830   -5.7530   -1.9380 h1        1 MOL      0.063257
     70 H30        -2.6070   -6.0330   -4.4200 hc        1 MOL      0.065052
     71 H31        -4.3890   -6.1250   -4.5440 hc        1 MOL      0.065052
     72 N7         -0.9930   -6.0850   -1.9650 n         1 MOL     -0.133817
     73 C23         0.0040   -6.5500   -1.0520 c3        1 MOL     -0.384550
     74 C24         0.2600   -5.8000    0.2410 c         1 MOL      0.515480
     75 O13         1.0810   -6.2730    1.0160 o         1 MOL     -0.542285
     76 H32        -0.7000   -5.7240   -2.8640 hn        1 MOL      0.234717
     77 H33         0.9730   -6.4740   -1.5620 h1        1 MOL      0.177800
     78 H34        -0.1940   -7.6050   -0.8520 h1        1 MOL      0.177800
     79 N8         -0.3940   -4.6690    0.4890 n         1 MOL     -0.098620
     80 C25        -0.3490   -3.9250    1.7480 c3        1 MOL      0.005422
     81 C26         0.0900   -2.5090    1.4990 c         1 MOL      0.297556
     82 O14        -0.2750   -1.9760    0.4800 o         1 MOL     -0.396610
     83 C27        -1.7540   -3.8660    2.4240 c3        1 MOL      0.291632
     84 C28        -2.5500   -5.1590    2.5380 c3        1 MOL     -0.478830
     85 O15        -1.7770   -3.2850    3.7110 oh        1 MOL     -0.607622
     86 H35        -0.8600   -4.2690   -0.3140 hn        1 MOL      0.059835
     87 H36         0.5130   -4.2770    2.3140 h1        1 MOL      0.025565
     88 H37        -2.3790   -3.2640    1.7690 h1        1 MOL      0.096484
     89 H38        -1.5670   -3.9780    4.3440 ho        1 MOL      0.390882
     90 H39        -2.6900   -5.5450    1.5220 hc        1 MOL      0.125956
     91 H40        -1.9060   -5.8760    3.0310 hc        1 MOL      0.125956
     92 H41        -3.5520   -5.0150    2.9380 hc        1 MOL      0.125956
     93 N9          0.8610   -1.9200    2.4820 n         1 MOL     -0.016025
     94 C29         1.3230   -0.5710    2.3730 c3        1 MOL     -0.440830
     95 C30         2.6000   -0.6130    1.5190 c         1 MOL      0.624187
     96 O16         2.7840    0.3360    0.7540 o         1 MOL     -0.580362
     97 C31         1.7090    0.0710    3.7360 c3        1 MOL      0.135055
     98 C32         0.5250   -0.1690    4.7060 c3        1 MOL      0.147480
     99 C33         1.8360    1.5940    3.4780 c3        1 MOL     -0.236967
    100 C34        -0.8790    0.2030    4.1910 c3        1 MOL     -0.313867
    101 H42         1.3490   -2.4190    3.2140 hn        1 MOL      0.199749
    102 H43         0.5860    0.0210    1.8350 h1        1 MOL      0.212260
    103 H44         2.6680   -0.2860    4.1150 hc        1 MOL      0.017709
    104 H45         0.8820    0.4170    5.5570 hc        1 MOL     -0.049801
    105 H46         0.4730   -1.2100    5.0480 hc        1 MOL     -0.049801
    106 H47         2.8470    1.8580    3.1620 hc        1 MOL      0.077269
    107 H48         1.0080    1.9600    2.8840 hc        1 MOL      0.077269
    108 H49         1.8000    2.0790    4.4490 hc        1 MOL      0.077269
    109 H50        -1.3790   -0.7400    3.9940 hc        1 MOL      0.086682
    110 H51        -1.2870    0.6970    5.0750 hc        1 MOL      0.086682
    111 H52        -0.8160    0.8700    3.3340 hc        1 MOL      0.086682
    112 N10         3.3860   -1.6480    1.3760 n         1 MOL     -0.397483
    113 C35         4.6150   -1.5830    0.5050 c3        1 MOL      0.068118
    114 C36         5.8830   -2.0980    1.1950 c         1 MOL      0.576197
    115 O17         5.7900   -2.7840    2.2050 o         1 MOL     -0.566948
    116 C37         4.3670   -2.2880   -0.8580 c3        1 MOL      0.315319
    117 C38         3.8460   -3.7720   -0.7160 c3        1 MOL     -0.269736
    118 O18         3.5520   -1.6270   -1.7650 oh        1 MOL     -0.590993
    119 H53         3.1850   -2.4710    1.9240 hn        1 MOL      0.231913
    120 H54         4.9200   -0.5840    0.2030 h1        1 MOL      0.043955
    121 H55         5.3590   -2.3290   -1.3190 h1        1 MOL     -0.038868
    122 H56         3.8640   -0.7190   -1.8160 ho        1 MOL      0.415297
    123 H57         3.6720   -4.2090   -1.6990 hc        1 MOL      0.077483
    124 H58         4.4650   -4.4910   -0.1760 hc        1 MOL      0.077483
    125 H59         2.9310   -3.7290   -0.1330 hc        1 MOL      0.077483
    126 N11         7.0250   -1.7770    0.7560 n         1 MOL     -0.456145
    127 C39         8.3760   -1.9900    1.4170 c3        1 MOL      0.042124
    128 C40         8.9480   -0.5860    1.7220 c         1 MOL      0.515462
    129 O19         8.9410   -0.0920    2.8710 o         1 MOL     -0.512892
    130 C41         9.2590   -2.9620    0.5150 c3        1 MOL      0.214890
    131 C42        10.6830   -3.0770    0.8410 c3        1 MOL     -0.377060
    132 O20         9.2170   -2.5270   -0.8450 oh        1 MOL     -0.624859
    133 H60         7.0380   -1.4540   -0.2050 hn        1 MOL      0.263038
    134 H61         8.2780   -2.4910    2.3820 h1        1 MOL      0.102318
    135 H62         8.7610   -3.9350    0.4450 h1        1 MOL      0.058691
    136 H63         9.5590   -3.2930   -1.2980 ho        1 MOL      0.415563
    137 H64        11.1450   -2.1110    1.0460 hc        1 MOL      0.102174
    138 H65        10.6690   -3.6690    1.7500 hc        1 MOL      0.102174
    139 H66        11.2540   -3.5450    0.0410 hc        1 MOL      0.102174
    140 N12         9.4030    0.0270    0.6040 n         1 MOL     -0.299022
    141 C43         9.8510    1.4010    0.5010 c3        1 MOL     -0.208876
    142 C44         9.1430    2.1420   -0.6770 c         1 MOL      0.708345
    143 O21         8.7630    1.5220   -1.6340 o         1 MOL     -0.535662
    144 C45        11.3910    1.5410    0.5810 c3        1 MOL      0.019994
    145 C46        12.0500    0.9670   -0.6410 c3        1 MOL     -0.166087
    146 C47        13.5570    1.1880   -0.5840 c3        1 MOL      0.140648
    147 C48        14.3350    0.0410   -1.2550 c3        1 MOL     -0.060415
    148 N13        15.7440    0.1820   -1.0970 n4        1 MOL     -0.233010
    149 H67         9.4320   -0.5150   -0.2460 hn        1 MOL      0.234616
    150 H68         9.4990    1.9110    1.4030 h1        1 MOL      0.108536
    151 H69        11.8750    1.1850    1.4920 hc        1 MOL      0.031765
    152 H70        11.6440    2.5960    0.6090 hc        1 MOL      0.031765
    153 H71        11.6930    1.4540   -1.5490 hc        1 MOL      0.069617
    154 H72        11.9600   -0.1240   -0.6250 hc        1 MOL      0.069617
    155 H73        13.8800    1.2380    0.4530 hc        1 MOL      0.002643
    156 H74        13.7520    2.1790   -1.0110 hc        1 MOL      0.002643
    157 H75        14.1660    0.1110   -2.3300 hx        1 MOL      0.086662
    158 H76        14.0210   -0.9050   -0.8050 hx        1 MOL      0.086662
    159 H77        16.1280   -0.4910   -1.7350 hn        1 MOL      0.245975
    160 H78        16.1370    1.0860   -1.3290 hn        1 MOL      0.245975
    161 H79        15.9650   -0.0540   -0.1370 hn        1 MOL      0.245975
    162 N14         8.9540    3.4390   -0.5530 n         1 MOL     -0.565552
    163 C49         8.1220    4.2570   -1.4180 c3        1 MOL      0.212375
    164 C50         6.6010    4.0190   -1.1980 c         1 MOL      0.331821
    165 O22         5.9630    3.7680   -2.1990 o         1 MOL     -0.496696
    166 C51         8.4560    5.7470   -1.3010 c3        1 MOL     -0.020685
    167 C52         7.6780    6.8750   -1.9590 c3        1 MOL     -0.141857
    168 C53         8.4390    8.1570   -1.7210 c         1 MOL      0.709924
    169 O23         9.1270    8.5280   -2.6530 o         1 MOL     -0.657384
    170 O24         8.2950    8.7990   -0.6360 o         1 MOL     -0.657384
    171 H80         9.4260    3.9560    0.1710 hn        1 MOL      0.292334
    172 H81         8.3470    3.9890   -2.4530 h1        1 MOL      0.054395
    173 H82         9.4910    5.8510   -1.6230 hc        1 MOL      0.007905
    174 H83         8.4860    5.9160   -0.2280 hc        1 MOL      0.007905
    175 H84         6.6430    7.0380   -1.6670 hc        1 MOL      0.038208
    176 H85         7.7800    6.7470   -3.0350 hc        1 MOL      0.038208
    177 N15         5.9590    4.1510    0.0490 n         1 MOL     -0.288260
    178 C54         6.5210    4.6220    1.3180 c3        1 MOL     -0.143900
    179 H86         6.5350    3.8010    2.0360 h1        1 MOL      0.077490
    180 H87         7.5380    4.9780    1.1550 h1        1 MOL      0.077490
    181 H88         5.9080    5.4340    1.7080 h1        1 MOL      0.077490
    182 H89         5.0060    3.8390    0.0170 hn        1 MOL      0.267650
    183 Ca1        -6.4460    4.8370   -0.1100 Ca        1 MOL      1.704810
    184 O25        -5.1960    5.9090   -2.3710 oh        1 MOL     -0.828825
    185 H90        -4.3530    6.3510   -2.3090 ho        1 MOL      0.417232
    186 H91        -5.2530    5.6140   -3.2790 ho        1 MOL      0.417232
    187 O26        -5.7170    3.5900    2.0410 oh        1 MOL     -0.828825
    188 H92        -6.3540    3.1320    2.5820 ho        1 MOL      0.417232
    189 H93        -4.8890    3.1400    2.2020 ho        1 MOL      0.417232
    190 O27        -4.0940    5.9410    0.8130 oh        1 MOL     -0.828825
    191 H94        -3.4700    5.2190    0.8910 ho        1 MOL      0.417232
    192 H95        -3.7030    6.5240    0.1560 ho        1 MOL      0.417232
@<TRIPOS>BOND
     1    1    2 1   
     2    1    4 1   
     3    1    5 1   
     4    1    6 1   
     5    2    3 2   
     6    2    7 1   
     7    7    8 1   
     8    7   15 1   
     9    8    9 1   
    10    8   11 1   
    11    8   16 1   
    12    9   10 2   
    13    9   19 1   
    14   11   12 1   
    15   11   17 1   
    16   11   18 1   
    17   12   13 1   
    18   12   14 1   
    19   19   20 1   
    20   19   28 1   
    21   20   21 1   
    22   20   23 1   
    23   20   29 1   
    24   21   22 2   
    25   21   41 1   
    26   23   24 1   
    27   23   30 1   
    28   23   31 1   
    29   24   25 1   
    30   24   32 1   
    31   24   33 1   
    32   25   26 1   
    33   25   34 1   
    34   25   35 1   
    35   26   27 1   
    36   26   36 1   
    37   26   37 1   
    38   27   38 1   
    39   27   39 1   
    40   27   40 1   
    41   41   42 1   
    42   41   49 1   
    43   42   43 1   
    44   42   45 1   
    45   42   50 1   
    46   43   44 2   
    47   43   53 1   
    48   45   46 1   
    49   45   51 1   
    50   45   52 1   
    51   46   47 1   
    52   46   48 1   
    53   53   54 1   
    54   53   57 1   
    55   54   55 1   
    56   54   58 1   
    57   54   59 1   
    58   55   56 2   
    59   55   60 1   
    60   60   61 1   
    61   60   68 1   
    62   61   62 1   
    63   61   64 1   
    64   61   69 1   
    65   62   63 2   
    66   62   72 1   
    67   64   65 1   
    68   64   70 1   
    69   64   71 1   
    70   65   66 1   
    71   65   67 1   
    72   72   73 1   
    73   72   76 1   
    74   73   74 1   
    75   73   77 1   
    76   73   78 1   
    77   74   75 2   
    78   74   79 1   
    79   79   80 1   
    80   79   86 1   
    81   80   81 1   
    82   80   83 1   
    83   80   87 1   
    84   81   82 2   
    85   81   93 1   
    86   83   84 1   
    87   83   85 1   
    88   83   88 1   
    89   84   90 1   
    90   84   91 1   
    91   84   92 1   
    92   85   89 1   
    93   93   94 1   
    94   93  101 1   
    95   94   95 1   
    96   94   97 1   
    97   94  102 1   
    98   95   96 2   
    99   95  112 1   
   100   97   98 1   
   101   97   99 1   
   102   97  103 1   
   103   98  100 1   
   104   98  104 1   
   105   98  105 1   
   106   99  106 1   
   107   99  107 1   
   108   99  108 1   
   109  100  109 1   
   110  100  110 1   
   111  100  111 1   
   112  112  113 1   
   113  112  119 1   
   114  113  114 1   
   115  113  116 1   
   116  113  120 1   
   117  114  115 2   
   118  114  126 1   
   119  116  117 1   
   120  116  118 1   
   121  116  121 1   
   122  117  123 1   
   123  117  124 1   
   124  117  125 1   
   125  118  122 1   
   126  126  127 1   
   127  126  133 1   
   128  127  128 1   
   129  127  130 1   
   130  127  134 1   
   131  128  129 2   
   132  128  140 1   
   133  130  131 1   
   134  130  132 1   
   135  130  135 1   
   136  131  137 1   
   137  131  138 1   
   138  131  139 1   
   139  132  136 1   
   140  140  141 1   
   141  140  149 1   
   142  141  142 1   
   143  141  144 1   
   144  141  150 1   
   145  142  143 2   
   146  142  162 1   
   147  144  145 1   
   148  144  151 1   
   149  144  152 1   
   150  145  146 1   
   151  145  153 1   
   152  145  154 1   
   153  146  147 1   
   154  146  155 1   
   155  146  156 1   
   156  147  148 1   
   157  147  157 1   
   158  147  158 1   
   159  148  159 1   
   160  148  160 1   
   161  148  161 1   
   162  162  163 1   
   163  162  171 1   
   164  163  164 1   
   165  163  166 1   
   166  163  172 1   
   167  164  165 2   
   168  164  177 1   
   169  166  167 1   
   170  166  173 1   
   171  166  174 1   
   172  167  168 1   
   173  167  175 1   
   174  167  176 1   
   175  168  169 1   
   176  168  170 1   
   177  177  178 1   
   178  177  182 1   
   179  178  179 1   
   180  178  180 1   
   181  178  181 1   
   182  184  185 1   
   183  184  186 1   
   184  187  188 1   
   185  187  189 1   
   186  190  191 1   
   187  190  192 1   
@<TRIPOS>SUBSTRUCTURE
     1 MOL         1 TEMP              0 ****  ****    0 ROOT
