@<TRIPOS>MOLECULE
MOL
  192   187     1     0     0
SMALL
resp


@<TRIPOS>ATOM
      1 C1          5.4520    4.2430   -3.4610 c3        1 MOL     -0.381644
      2 C2          5.9430    3.2920   -2.3580 c         1 MOL      0.975800
      3 O1          5.2580    3.1190   -1.4050 o         1 MOL     -0.665917
      4 H1          6.2740    4.8810   -3.7840 hc        1 MOL      0.077898
      5 H2          5.0900    3.6610   -4.3090 hc        1 MOL      0.077898
      6 H3          4.6430    4.8630   -3.0730 hc        1 MOL      0.077898
      7 N1          7.0630    2.6080   -2.5990 n         1 MOL     -0.793825
      8 C3          7.4640    1.4120   -1.9060 c3        1 MOL      0.376101
      9 C4          6.4160    0.3720   -1.7010 c         1 MOL      0.206193
     10 O2          5.8240    0.2900   -0.6150 o         1 MOL     -0.553265
     11 C5          8.2540    1.7060   -0.6910 c3        1 MOL     -0.032949
     12 C6          7.6980    2.7950    0.2070 c         1 MOL      0.656675
     13 O3          7.0950    2.4300    1.2760 o         1 MOL     -0.718280
     14 O4          7.8950    4.0120   -0.1510 o         1 MOL     -0.718280
     15 H4          7.6490    2.8060   -3.3900 hn        1 MOL      0.336768
     16 H5          8.0920    0.9490   -2.6650 h1        1 MOL     -0.016179
     17 H6          9.2180    2.0620   -1.0400 hc        1 MOL     -0.007353
     18 H7          8.5270    0.7600   -0.2060 hc        1 MOL     -0.007353
     19 N2          5.9530   -0.2890   -2.7950 n         1 MOL     -0.376774
     20 C7          4.9680   -1.4240   -2.8790 c3        1 MOL      0.070089
     21 C8          5.3450   -2.7120   -2.1010 c         1 MOL      0.348680
     22 O5          5.3230   -3.7890   -2.6990 o         1 MOL     -0.540859
     23 C9          3.5180   -0.8370   -2.5940 c3        1 MOL      0.144544
     24 C10         2.4490   -1.8180   -3.0870 c3        1 MOL      0.012720
     25 C11         3.1460    0.5670   -3.1950 c3        1 MOL     -0.127328
     26 C12         2.3980   -2.0440   -4.6040 c3        1 MOL     -0.359409
     27 H8          6.3760   -0.0380   -3.6790 hn        1 MOL      0.268725
     28 H9          5.0700   -1.7700   -3.9100 h1        1 MOL      0.062952
     29 H10         3.4850   -0.7800   -1.5120 hc        1 MOL     -0.090027
     30 H11         1.4420   -1.5910   -2.7240 hc        1 MOL      0.078826
     31 H12         2.7040   -2.8140   -2.7110 hc        1 MOL      0.078826
     32 H13         2.0680    0.7140   -3.1970 hc        1 MOL      0.017890
     33 H14         3.6420    1.3570   -2.6440 hc        1 MOL      0.017890
     34 H15         3.5930    0.6820   -4.1760 hc        1 MOL      0.017890
     35 H16         1.5110   -2.6500   -4.7790 hc        1 MOL      0.065371
     36 H17         2.1000   -1.1710   -5.1740 hc        1 MOL      0.065371
     37 H18         3.3140   -2.4870   -5.0110 hc        1 MOL      0.065371
     38 N3          5.7620   -2.5930   -0.8710 n         1 MOL     -0.029727
     39 C13         6.4900   -3.6510   -0.1830 c3        1 MOL      0.012522
     40 C14         5.6110   -4.8970    0.0000 c         1 MOL      0.574684
     41 O6          6.1360   -5.9960   -0.1910 o         1 MOL     -0.594901
     42 C15         7.0070   -3.2700    1.1700 c3        1 MOL     -0.250725
     43 C16         7.9560   -2.0450    1.0640 c         1 MOL      0.755669
     44 O7          7.9980   -1.2970    2.0230 o         1 MOL     -0.699564
     45 O8          8.6960   -1.8770    0.0830 o         1 MOL     -0.699564
     46 H19         5.8850   -1.6550   -0.5110 hn        1 MOL      0.211835
     47 H20         7.4000   -3.8420   -0.7360 h1        1 MOL      0.035177
     48 H21         7.5010   -4.1090    1.6670 hc        1 MOL      0.070168
     49 H22         6.2910   -2.9550    1.9340 hc        1 MOL      0.070168
     50 N4          4.2790   -4.8080    0.2980 n         1 MOL     -0.509362
     51 C17         3.4950   -3.7350    0.8330 c3        1 MOL      0.232802
     52 C18         2.2210   -4.1710    1.4080 c         1 MOL      0.514754
     53 O9          1.6710   -5.2620    1.0820 o         1 MOL     -0.570979
     54 H23         3.8250   -5.7180    0.2490 hn        1 MOL      0.274590
     55 H24         3.3380   -3.0440    0.0080 h1        1 MOL     -0.008048
     56 H25         4.1070   -3.1020    1.4840 h1        1 MOL     -0.008048
     57 N5          1.5760   -3.4480    2.3650 n         1 MOL     -0.422329
     58 C19         1.8610   -2.1300    2.8870 c3        1 MOL      0.191077
     59 C20         2.1240   -1.0780    1.7170 c         1 MOL      0.356621
     60 O10         3.2410   -0.7480    1.3260 o         1 MOL     -0.546788
     61 C21         2.9850   -2.1890    3.9740 c3        1 MOL     -0.364083
     62 C22         2.8150   -3.1210    5.2190 c         1 MOL      0.727114
     63 O11         2.8250   -2.6220    6.3720 o         1 MOL     -0.726342
     64 O12         2.6800   -4.3760    5.0540 o         1 MOL     -0.726342
     65 H26         0.7560   -3.8660    2.7840 hn        1 MOL      0.276718
     66 H27         1.0360   -1.8000    3.5100 h1        1 MOL      0.063945
     67 H28         3.1700   -1.1610    4.2710 hc        1 MOL      0.072063
     68 H29         3.9300   -2.5320    3.5700 hc        1 MOL      0.072063
     69 N6          1.1430   -0.4620    1.0760 n         1 MOL     -0.254979
     70 C23        -0.2520   -0.9120    0.9030 c3        1 MOL     -0.100076
     71 C24        -0.3290   -2.2640    0.1630 c         1 MOL      0.606829
     72 O13         0.5680   -2.6520   -0.6210 o         1 MOL     -0.542438
     73 H30         1.3480    0.4180    0.6150 hn        1 MOL      0.232332
     74 H31        -0.6400   -0.0910    0.3080 h1        1 MOL      0.046239
     75 H32        -0.7300   -1.0080    1.8750 h1        1 MOL      0.046239
     76 N7         -1.4920   -2.9260    0.3630 n         1 MOL     -0.530832
     77 C25        -1.8840   -4.1230   -0.3610 c3        1 MOL     -0.112235
     78 C26        -2.6390   -3.8870   -1.6700 c         1 MOL      0.437814
     79 O14        -2.7160   -4.8120   -2.4900 o         1 MOL     -0.537277
     80 C27        -2.5550   -5.0800    0.6430 c3        1 MOL      0.236430
     81 C28        -3.6740   -4.5920    1.5500 c3        1 MOL     -0.271041
     82 C29        -4.8740   -4.1320    0.7450 c         1 MOL      0.677523
     83 N8         -5.7710   -5.0640    0.5840 n         1 MOL     -0.658752
     84 O15        -5.0270   -3.0430    0.2220 o         1 MOL     -0.586108
     85 H33        -2.0810   -2.5380    1.0840 hn        1 MOL      0.280813
     86 H34        -0.9180   -4.5210   -0.6910 h1        1 MOL      0.168444
     87 H35        -1.7440   -5.5980    1.1720 hc        1 MOL     -0.017219
     88 H36        -2.9260   -5.9510    0.0970 hc        1 MOL     -0.017219
     89 H37        -3.4180   -3.8110    2.2690 hc        1 MOL      0.071580
     90 H38        -3.9370   -5.4490    2.1710 hc        1 MOL      0.071580
     91 H39        -5.7020   -5.9730    1.0310 hn        1 MOL      0.325855
     92 H40        -6.5280   -4.8860   -0.0740 hn        1 MOL      0.325855
     93 N9         -3.0930   -2.6530   -1.9580 n         1 MOL     -0.155755
     94 C30        -3.5390   -2.1300   -3.2390 c3        1 MOL     -0.075180
     95 C31        -4.8590   -1.3960   -3.1930 c         1 MOL      0.281560
     96 O16        -5.3400   -0.8910   -4.2810 o         1 MOL     -0.537746
     97 C32        -2.3820   -1.3640   -3.9930 c3        1 MOL      0.369287
     98 C33        -1.1430   -2.1450   -4.3120 c3        1 MOL     -0.377706
     99 C34        -1.8880   -0.1300   -3.2280 c3        1 MOL     -0.377706
    100 H41        -3.0180   -1.9260   -1.2540 hn        1 MOL      0.187481
    101 H42        -3.6680   -2.9740   -3.9160 h1        1 MOL      0.088908
    102 H43        -2.8590   -1.1150   -4.9420 hc        1 MOL     -0.041092
    103 H44        -0.5640   -2.4210   -3.4320 hc        1 MOL      0.093066
    104 H45        -1.3640   -3.0650   -4.8530 hc        1 MOL      0.093066
    105 H46        -0.5690   -1.4740   -4.9450 hc        1 MOL      0.093066
    106 H47        -1.4060   -0.4340   -2.3010 hc        1 MOL      0.093066
    107 H48        -1.1670    0.3440   -3.8920 hc        1 MOL      0.093066
    108 H49        -2.7240    0.4900   -2.9070 hc        1 MOL      0.093066
    109 N10        -5.5840   -1.3550   -2.0940 n         1 MOL     -0.051318
    110 C35        -6.8830   -0.7290   -2.0170 c3        1 MOL     -0.053405
    111 C36        -6.8290    0.6820   -1.3180 c         1 MOL      0.609460
    112 O17        -7.7220    1.4790   -1.5180 o         1 MOL     -0.577684
    113 C37        -7.8390   -1.6080   -1.2250 c3        1 MOL     -0.313043
    114 C38        -7.9160   -3.0340   -1.7240 c         1 MOL      0.598835
    115 N11        -7.9190   -3.2830   -3.0510 n         1 MOL     -0.718439
    116 O18        -7.8830   -3.9310   -0.8770 o         1 MOL     -0.550030
    117 H50        -5.2700   -1.9640   -1.3610 hn        1 MOL      0.164225
    118 H51        -7.3210   -0.4690   -2.9850 h1        1 MOL      0.086174
    119 H52        -8.8620   -1.2300   -1.1310 hc        1 MOL      0.133862
    120 H53        -7.5680   -1.7530   -0.1690 hc        1 MOL      0.133862
    121 H54        -7.9740   -2.5150   -3.7040 hn        1 MOL      0.347485
    122 H55        -8.2050   -4.1840   -3.4170 hn        1 MOL      0.347485
    123 N12        -5.7670    0.9960   -0.6210 n         1 MOL     -0.465592
    124 C39        -5.8810    2.0380    0.5010 c3        1 MOL      0.102122
    125 C40        -4.6010    2.8350    0.6480 c         1 MOL      0.551050
    126 O19        -3.5260    2.3230    0.3670 o         1 MOL     -0.507528
    127 C41        -6.1530    1.2640    1.8130 c3        1 MOL     -0.075990
    128 C42        -7.4640    0.5020    1.8800 ca        1 MOL      0.027563
    129 C43        -8.6710    1.1320    1.7160 ca        1 MOL     -0.128264
    130 C44        -7.4680   -0.9110    2.1450 ca        1 MOL     -0.128264
    131 C45        -9.8990    0.3780    1.8080 ca        1 MOL     -0.267160
    132 C46        -8.7280   -1.6770    2.2080 ca        1 MOL     -0.267160
    133 C47        -9.9510   -1.0120    1.9980 ca        1 MOL      0.307989
    134 O20       -11.0830   -1.8050    2.0860 oh        1 MOL     -0.451565
    135 H56        -5.1290    0.2160   -0.5240 hn        1 MOL      0.222308
    136 H57        -6.7110    2.7240    0.3750 h1        1 MOL      0.052938
    137 H58        -6.1630    1.9590    2.6530 hc        1 MOL      0.069794
    138 H59        -5.3790    0.5280    2.0390 hc        1 MOL      0.069794
    139 H60        -8.6650    2.1990    1.5620 ha        1 MOL      0.123861
    140 H61        -6.5550   -1.4790    2.1540 ha        1 MOL      0.123861
    141 H62       -10.8310    0.9270    1.7800 ha        1 MOL      0.136020
    142 H63        -8.6980   -2.7280    2.4450 ha        1 MOL      0.136020
    143 H64       -11.7950   -1.2030    1.8650 ho        1 MOL      0.329151
    144 N13        -4.7520    4.0800    1.0440 n         1 MOL     -0.565948
    145 C48        -3.7260    5.1110    1.3810 c3        1 MOL      0.022191
    146 C49        -2.6430    5.4340    0.2900 c         1 MOL      0.541177
    147 O21        -2.0640    6.5360    0.2890 o         1 MOL     -0.576202
    148 C50        -2.9550    4.7810    2.6570 c3        1 MOL      0.131906
    149 C51        -3.6780    4.6750    4.0070 c3        1 MOL     -0.249839
    150 C52        -2.7200    4.3190    5.0570 c         1 MOL      0.712376
    151 O22        -2.5920    3.0910    5.4210 o         1 MOL     -0.732689
    152 O23        -2.0180    5.2420    5.5090 o         1 MOL     -0.732689
    153 H65        -5.6860    4.3780    1.2820 hn        1 MOL      0.329771
    154 H66        -4.1860    6.0750    1.5520 h1        1 MOL      0.050930
    155 H67        -2.1580    5.5040    2.8100 hc        1 MOL      0.037362
    156 H68        -2.4230    3.8780    2.3630 hc        1 MOL      0.037362
    157 H69        -4.4660    3.9270    4.0580 hc        1 MOL      0.010495
    158 H70        -4.0950    5.6500    4.2510 hc        1 MOL      0.010495
    159 N14        -2.2740    4.5680   -0.6670 n         1 MOL     -0.486137
    160 C53        -1.0670    4.7720   -1.4580 c3        1 MOL     -0.051693
    161 C54        -1.1550    5.7620   -2.6050 c         1 MOL      0.406921
    162 O24        -0.1950    5.9540   -3.3740 o         1 MOL     -0.544978
    163 C55        -0.4260    3.4560   -1.9360 c3        1 MOL     -0.100435
    164 C56         0.0420    2.5350   -0.8620 c3        1 MOL      0.196441
    165 C57         1.3410    2.9300   -0.1580 c         1 MOL      0.656926
    166 O25         2.2580    2.1150    0.1000 o         1 MOL     -0.671708
    167 O26         1.4940    4.1640    0.1260 o         1 MOL     -0.671708
    168 H71        -2.7440    3.6740   -0.7070 hn        1 MOL      0.282891
    169 H72        -0.3410    5.3580   -0.8950 h1        1 MOL      0.183558
    170 H73         0.4620    3.6410   -2.5380 hc        1 MOL      0.042715
    171 H74        -1.0640    2.9230   -2.6350 hc        1 MOL      0.042715
    172 H75         0.2470    1.5120   -1.1590 hc        1 MOL     -0.060164
    173 H76        -0.7530    2.3740   -0.1300 hc        1 MOL     -0.060164
    174 N15        -2.2830    6.3640   -2.7730 n         1 MOL     -0.118836
    175 C58        -2.8220    7.0930   -3.9080 c3        1 MOL     -0.200684
    176 H77        -2.0680    7.7790   -4.2900 h1        1 MOL      0.081394
    177 H78        -3.1010    6.3890   -4.6930 h1        1 MOL      0.081394
    178 H79        -3.7010    7.6570   -3.5950 h1        1 MOL      0.081394
    179 H80        -2.9150    6.2280   -1.9940 hn        1 MOL      0.185822
    180 Ca1         4.4660    1.6810    1.1980 Ca        1 MOL      1.830898
    181 O27         5.3250    2.6390    3.7590 oh        1 MOL     -0.838751
    182 H81         5.9510    2.3210    4.4120 ho        1 MOL      0.402178
    183 H82         5.1090    3.5240    4.0660 ho        1 MOL      0.402178
    184 O28         5.7830    0.0060    2.7460 oh        1 MOL     -0.838751
    185 H83         6.5530   -0.4160    2.3690 ho        1 MOL      0.402178
    186 H84         5.8980   -0.0750    3.6880 ho        1 MOL      0.402178
    187 O29         2.2360    1.7930    3.1720 oh        1 MOL     -0.838751
    188 H85         2.0250    1.1030    3.8020 ho        1 MOL      0.402178
    189 H86         1.5350    2.4370    3.2740 ho        1 MOL      0.402178
    190 O30         4.1260    4.3230    1.3250 oh        1 MOL     -0.838751
    191 H87         3.3410    4.2960    0.7700 ho        1 MOL      0.402178
    192 H88         3.9530    5.0390    1.9350 ho        1 MOL      0.402178
@<TRIPOS>BOND
     1    1    2 1   
     2    1    4 1   
     3    1    5 1   
     4    1    6 1   
     5    2    3 2   
     6    2    7 1   
     7    7    8 1   
     8    7   15 1   
     9    8    9 1   
    10    8   11 1   
    11    8   16 1   
    12    9   10 2   
    13    9   19 1   
    14   11   12 1   
    15   11   17 1   
    16   11   18 1   
    17   12   13 1   
    18   12   14 1   
    19   19   20 1   
    20   19   27 1   
    21   20   21 1   
    22   20   23 1   
    23   20   28 1   
    24   21   22 2   
    25   21   38 1   
    26   23   24 1   
    27   23   25 1   
    28   23   29 1   
    29   24   26 1   
    30   24   30 1   
    31   24   31 1   
    32   25   32 1   
    33   25   33 1   
    34   25   34 1   
    35   26   35 1   
    36   26   36 1   
    37   26   37 1   
    38   38   39 1   
    39   38   46 1   
    40   39   40 1   
    41   39   42 1   
    42   39   47 1   
    43   40   41 2   
    44   40   50 1   
    45   42   43 1   
    46   42   48 1   
    47   42   49 1   
    48   43   44 1   
    49   43   45 1   
    50   50   51 1   
    51   50   54 1   
    52   51   52 1   
    53   51   55 1   
    54   51   56 1   
    55   52   53 2   
    56   52   57 1   
    57   57   58 1   
    58   57   65 1   
    59   58   59 1   
    60   58   61 1   
    61   58   66 1   
    62   59   60 2   
    63   59   69 1   
    64   61   62 1   
    65   61   67 1   
    66   61   68 1   
    67   62   63 1   
    68   62   64 1   
    69   69   70 1   
    70   69   73 1   
    71   70   71 1   
    72   70   74 1   
    73   70   75 1   
    74   71   72 2   
    75   71   76 1   
    76   76   77 1   
    77   76   85 1   
    78   77   78 1   
    79   77   80 1   
    80   77   86 1   
    81   78   79 2   
    82   78   93 1   
    83   80   81 1   
    84   80   87 1   
    85   80   88 1   
    86   81   82 1   
    87   81   89 1   
    88   81   90 1   
    89   82   83 1   
    90   82   84 2   
    91   83   91 1   
    92   83   92 1   
    93   93   94 1   
    94   93  100 1   
    95   94   95 1   
    96   94   97 1   
    97   94  101 1   
    98   95   96 2   
    99   95  109 1   
   100   97   98 1   
   101   97   99 1   
   102   97  102 1   
   103   98  103 1   
   104   98  104 1   
   105   98  105 1   
   106   99  106 1   
   107   99  107 1   
   108   99  108 1   
   109  109  110 1   
   110  109  117 1   
   111  110  111 1   
   112  110  113 1   
   113  110  118 1   
   114  111  112 2   
   115  111  123 1   
   116  113  114 1   
   117  113  119 1   
   118  113  120 1   
   119  114  115 1   
   120  114  116 2   
   121  115  121 1   
   122  115  122 1   
   123  123  124 1   
   124  123  135 1   
   125  124  125 1   
   126  124  127 1   
   127  124  136 1   
   128  125  126 2   
   129  125  144 1   
   130  127  128 1   
   131  127  137 1   
   132  127  138 1   
   133  128  129 ar  
   134  128  130 ar  
   135  129  131 ar  
   136  129  139 1   
   137  130  132 ar  
   138  130  140 1   
   139  131  133 ar  
   140  131  141 1   
   141  132  133 ar  
   142  132  142 1   
   143  133  134 1   
   144  134  143 1   
   145  144  145 1   
   146  144  153 1   
   147  145  146 1   
   148  145  148 1   
   149  145  154 1   
   150  146  147 2   
   151  146  159 1   
   152  148  149 1   
   153  148  155 1   
   154  148  156 1   
   155  149  150 1   
   156  149  157 1   
   157  149  158 1   
   158  150  151 1   
   159  150  152 1   
   160  159  160 1   
   161  159  168 1   
   162  160  161 1   
   163  160  163 1   
   164  160  169 1   
   165  161  162 2   
   166  161  174 1   
   167  163  164 1   
   168  163  170 1   
   169  163  171 1   
   170  164  165 1   
   171  164  172 1   
   172  164  173 1   
   173  165  166 1   
   174  165  167 1   
   175  174  175 1   
   176  174  179 1   
   177  175  176 1   
   178  175  177 1   
   179  175  178 1   
   180  181  182 1   
   181  181  183 1   
   182  184  185 1   
   183  184  186 1   
   184  187  188 1   
   185  187  189 1   
   186  190  191 1   
   187  190  192 1   
@<TRIPOS>SUBSTRUCTURE
     1 MOL         1 TEMP              0 ****  ****    0 ROOT
