@<TRIPOS>MOLECULE
MOL
  178   175     1     0     0
SMALL
resp


@<TRIPOS>ATOM
      1 C1          5.0700   -2.6190    3.3390 c3        1 MOL     -0.397607
      2 C2          6.1290   -1.9070    2.5630 c         1 MOL      0.712811
      3 O1          5.9190   -0.7910    1.9820 o         1 MOL     -0.620747
      4 H1          4.8450   -3.5710    2.8570 hc        1 MOL      0.113877
      5 H2          5.4230   -2.8020    4.3540 hc        1 MOL      0.113877
      6 H3          4.1690   -2.0070    3.3710 hc        1 MOL      0.113877
      7 N1          7.3320   -2.5400    2.5080 n         1 MOL     -0.488246
      8 C3          8.6330   -1.9380    2.2340 c3        1 MOL      0.132169
      9 C4          8.7570   -1.7540    0.7400 c         1 MOL      0.488724
     10 O2          8.4340   -2.6810   -0.0410 o         1 MOL     -0.533110
     11 C5          9.8010   -2.7120    2.6980 c3        1 MOL     -0.120734
     12 C6          9.8960   -4.2410    2.3340 c         1 MOL      0.720945
     13 O3          9.0570   -4.9690    2.8540 o         1 MOL     -0.709728
     14 O4         10.9500   -4.6620    1.8230 o         1 MOL     -0.709728
     15 H4          7.3350   -3.4630    2.9110 hn        1 MOL      0.256281
     16 H5          8.8210   -0.9600    2.6830 h1        1 MOL     -0.000181
     17 H6          9.7730   -2.5980    3.7800 hc        1 MOL     -0.009568
     18 H7         10.6800   -2.1920    2.3170 hc        1 MOL     -0.009568
     19 N2          9.0380   -0.5330    0.2900 n         1 MOL     -0.426477
     20 C7          9.1420   -0.1460   -1.1550 c3        1 MOL      0.119174
     21 C8          7.8000   -0.0700   -1.8380 c         1 MOL      0.351110
     22 O5          7.7850    0.0970   -3.0320 o         1 MOL     -0.528483
     23 C9          9.7190    1.2360   -1.1750 c3        1 MOL     -0.389565
     24 H8          9.0960    0.2160    0.9560 hn        1 MOL      0.267735
     25 H9          9.6850   -0.9100   -1.7070 h1        1 MOL      0.122442
     26 H10        10.6180    1.2220   -0.5490 hc        1 MOL      0.101202
     27 H11         9.9930    1.5260   -2.1930 hc        1 MOL      0.101202
     28 H12         9.1090    1.9980   -0.6700 hc        1 MOL      0.101202
     29 N3          6.6940   -0.2540   -1.1520 n         1 MOL     -0.126326
     30 C10         5.2830   -0.2990   -1.6670 c3        1 MOL      0.289481
     31 C11         4.8810    1.0430   -2.2720 c         1 MOL      0.321652
     32 O6          4.1170    1.0550   -3.2300 o         1 MOL     -0.418649
     33 C12         4.8880   -1.6690   -2.2200 c3        1 MOL     -0.480253
     34 C13         3.4250   -1.9750   -2.3390 c         1 MOL      0.929613
     35 O7          2.9030   -2.9560   -2.8570 o         1 MOL     -0.824367
     36 O8          2.5290   -1.4210   -1.6110 o         1 MOL     -0.824367
     37 H13         6.6960   -0.3620   -0.1500 hn        1 MOL      0.100001
     38 H14         4.6550   -0.3010   -0.7770 h1        1 MOL      0.005939
     39 H15         5.3160   -2.4190   -1.5580 hc        1 MOL      0.122000
     40 H16         5.4220   -1.6620   -3.1660 hc        1 MOL      0.122000
     41 N4          5.3160    2.1270   -1.6530 n         1 MOL     -0.177959
     42 C14         5.1390    3.4710   -2.2400 c3        1 MOL     -0.455411
     43 C15         3.7000    4.0100   -2.4920 c         1 MOL      0.807130
     44 O9          3.5930    5.0880   -2.9380 o         1 MOL     -0.625346
     45 H17         5.7730    2.0460   -0.7540 hn        1 MOL      0.223087
     46 H18         5.6120    3.4170   -3.2190 h1        1 MOL      0.161299
     47 H19         5.6320    4.1990   -1.6030 h1        1 MOL      0.161299
     48 N5          2.5940    3.4130   -2.0900 n         1 MOL     -0.417049
     49 C16         1.2730    3.8290   -2.5550 c3        1 MOL     -0.086865
     50 C17         0.7590    4.9300   -1.6230 c         1 MOL      0.556339
     51 O10         0.7410    4.8730   -0.3850 o         1 MOL     -0.550958
     52 C18         0.4190    2.5360   -2.5420 c3        1 MOL     -0.185497
     53 C19         0.8050    1.4890   -3.5560 c         1 MOL      0.650408
     54 N6          0.6600    0.2480   -3.2920 n         1 MOL     -0.832744
     55 O11         1.2310    1.8880   -4.6260 o         1 MOL     -0.620883
     56 H20         2.6310    2.5900   -1.5100 hn        1 MOL      0.246772
     57 H21         1.2830    4.2360   -3.5680 h1        1 MOL      0.099865
     58 H22        -0.6340    2.8050   -2.6320 hc        1 MOL      0.094170
     59 H23         0.4170    2.1070   -1.5360 hc        1 MOL      0.094170
     60 H24         0.4170    0.0640   -2.3240 hn        1 MOL      0.425878
     61 H25         0.7740   -0.4830   -3.9830 hn        1 MOL      0.425878
     62 N7          0.2180    5.9970   -2.2340 n         1 MOL     -0.328840
     63 C20        -0.1270    7.1920   -1.4750 c3        1 MOL     -0.200361
     64 C21        -1.4530    7.0760   -0.6210 c         1 MOL      0.477477
     65 O12        -2.4670    6.5070   -1.0700 o         1 MOL     -0.482738
     66 H26         0.2440    6.1050   -3.2340 hn        1 MOL      0.281992
     67 H27        -0.2720    7.9960   -2.2020 h1        1 MOL      0.107554
     68 H28         0.7470    7.5370   -0.9290 h1        1 MOL      0.107554
     69 N8         -1.3280    7.5740    0.6220 n         1 MOL     -0.334379
     70 C22        -2.3290    7.6420    1.6420 c3        1 MOL     -0.290812
     71 C23        -2.5670    6.3510    2.4240 c         1 MOL      0.461759
     72 O13        -3.3230    6.4060    3.3970 o         1 MOL     -0.537307
     73 C24        -1.8970    8.7440    2.6190 c3        1 MOL      0.509617
     74 C25        -0.7390    8.2780    3.5020 c3        1 MOL     -0.318478
     75 O14        -1.7570    9.9400    1.9190 oh        1 MOL     -0.627536
     76 H29        -0.4000    7.8940    0.8630 hn        1 MOL      0.232399
     77 H30        -3.2370    8.0030    1.1710 h1        1 MOL      0.165976
     78 H31        -2.7040    8.9110    3.3370 h1        1 MOL      0.022427
     79 H32        -1.0360    9.8300    1.2880 ho        1 MOL      0.359159
     80 H33        -1.0680    7.6080    4.2890 hc        1 MOL      0.068392
     81 H34         0.1200    7.7930    3.0520 hc        1 MOL      0.068392
     82 H35        -0.3830    9.2370    3.8920 hc        1 MOL      0.068392
     83 N9         -2.0640    5.2070    1.8870 n         1 MOL     -0.148561
     84 C26        -2.5090    3.8880    2.2600 c3        1 MOL     -0.012903
     85 C27        -2.5720    2.9920    0.9970 c         1 MOL      0.346165
     86 O15        -2.0320    3.3160   -0.0650 o         1 MOL     -0.387484
     87 C28        -1.5920    3.2000    3.3430 c3        1 MOL     -0.000821
     88 C29        -0.1050    3.2670    2.8630 c3        1 MOL     -0.001782
     89 C30        -1.7790    3.7600    4.7410 c3        1 MOL     -0.364837
     90 C31         0.9330    2.4500    3.6050 c3        1 MOL     -0.297497
     91 H36        -1.3730    5.3230    1.1620 hn        1 MOL      0.179180
     92 H37        -3.5050    3.8750    2.7170 h1        1 MOL      0.093405
     93 H38        -1.8630    2.1470    3.3890 hc        1 MOL      0.051506
     94 H39         0.2560    4.2890    2.7540 hc        1 MOL      0.081879
     95 H40        -0.0540    2.7910    1.8860 hc        1 MOL      0.081879
     96 H41        -2.7660    3.6320    5.1880 hc        1 MOL      0.098650
     97 H42        -0.9910    3.5010    5.4460 hc        1 MOL      0.098650
     98 H43        -1.7000    4.8380    4.6070 hc        1 MOL      0.098650
     99 H44         1.8850    2.4700    3.0830 hc        1 MOL      0.074982
    100 H45         1.0360    2.8420    4.6250 hc        1 MOL      0.074982
    101 H46         0.5430    1.4420    3.5480 hc        1 MOL      0.074982
    102 N10        -3.1110    1.7750    1.0500 n         1 MOL     -0.498584
    103 C32        -2.6390    0.6700    0.2880 c3        1 MOL      0.273600
    104 C33        -3.7130   -0.3760    0.0080 c         1 MOL      0.491176
    105 O16        -3.5260   -1.5770    0.2920 o         1 MOL     -0.376765
    106 C34        -1.4100   -0.0060    0.8610 c3        1 MOL     -0.468716
    107 C35        -0.6750   -1.0350   -0.0020 c         1 MOL      0.803790
    108 O17        -0.6030   -1.0460   -1.2030 o         1 MOL     -0.777459
    109 O18        -0.0230   -1.9260    0.6160 o         1 MOL     -0.777459
    110 H47        -3.6900    1.6250    1.8750 hn        1 MOL      0.282114
    111 H48        -2.3400    1.0260   -0.6950 h1        1 MOL      0.027993
    112 H49        -1.6780   -0.4340    1.8210 hc        1 MOL      0.145501
    113 H50        -0.5940    0.6930    1.0340 hc        1 MOL      0.145501
    114 N11        -4.8440    0.0510   -0.5140 n         1 MOL     -0.612706
    115 C36        -5.9550   -0.7350   -0.9660 c3        1 MOL      0.378398
    116 C37        -6.5060   -1.5610    0.1930 c         1 MOL      0.342822
    117 O19        -6.5520   -1.1450    1.3730 o         1 MOL     -0.529745
    118 C38        -7.0140    0.1720   -1.6400 c3        1 MOL     -0.136768
    119 C39        -7.8780   -0.5590   -2.6750 ca        1 MOL      0.087396
    120 C40        -7.4140   -0.9140   -3.9460 ca        1 MOL     -0.175078
    121 C41        -9.2780   -0.7990   -2.3760 ca        1 MOL     -0.175078
    122 C42        -8.3210   -1.5570   -4.9030 ca        1 MOL     -0.118275
    123 C43       -10.1170   -1.4340   -3.2940 ca        1 MOL     -0.118275
    124 C44        -9.6510   -1.8750   -4.5750 ca        1 MOL     -0.110772
    125 H51        -4.9510    1.0650   -0.4470 hn        1 MOL      0.289254
    126 H52        -5.6570   -1.3370   -1.8230 h1        1 MOL      0.028756
    127 H53        -6.5100    0.9270   -2.2410 hc        1 MOL      0.059260
    128 H54        -7.6310    0.7370   -0.9500 hc        1 MOL      0.059260
    129 H55        -6.4000   -0.6800   -4.2120 ha        1 MOL      0.130151
    130 H56        -9.7160   -0.6100   -1.4050 ha        1 MOL      0.130151
    131 H57        -8.0070   -1.5500   -5.9340 ha        1 MOL      0.111484
    132 H58       -11.1270   -1.6320   -2.9940 ha        1 MOL      0.111484
    133 H59       -10.2770   -2.2900   -5.3560 ha        1 MOL      0.108685
    134 N12        -6.7400   -2.8940   -0.0700 n         1 MOL     -0.201100
    135 C45        -7.3140   -3.8200    0.9540 c3        1 MOL     -0.145806
    136 C46        -6.2850   -4.2120    2.0170 c         1 MOL      0.634157
    137 O20        -6.6590   -4.8660    2.9930 o         1 MOL     -0.557725
    138 C47        -7.8570   -4.9590    0.1120 c3        1 MOL     -0.003045
    139 C48        -6.9210   -5.1090   -1.0440 c3        1 MOL      0.074239
    140 C49        -6.4300   -3.6450   -1.3210 c3        1 MOL     -0.000838
    141 H60        -8.0750   -3.2760    1.5050 h1        1 MOL      0.103115
    142 H61        -7.9760   -5.8070    0.7780 hc        1 MOL      0.022493
    143 H62        -8.8630   -4.7500   -0.2750 hc        1 MOL      0.022493
    144 H63        -6.0360   -5.6460   -0.7090 hc        1 MOL     -0.005474
    145 H64        -7.3560   -5.6100   -1.9040 hc        1 MOL     -0.005474
    146 H65        -5.3530   -3.5700   -1.4700 h1        1 MOL      0.023972
    147 H66        -6.9000   -3.1950   -2.1950 h1        1 MOL      0.023972
    148 N13        -4.9770   -3.7800    1.9400 n         1 MOL     -0.437972
    149 C50        -3.9060   -4.3930    2.7770 c3        1 MOL     -0.345871
    150 C51        -3.7000   -3.7400    4.1400 c         1 MOL      0.574467
    151 O21        -3.1930   -4.4100    5.0180 o         1 MOL     -0.525541
    152 C52        -2.6040   -4.4120    1.9740 c3        1 MOL      0.203660
    153 C53        -2.5830   -5.3140    0.7250 c3        1 MOL     -0.117023
    154 C54        -1.3740   -4.8760   -0.1150 c         1 MOL      0.473609
    155 O22        -0.2600   -5.1180    0.4130 o         1 MOL     -0.666031
    156 O23        -1.5360   -4.2820   -1.2130 o         1 MOL     -0.666031
    157 H67        -4.7840   -3.1680    1.1710 hn        1 MOL      0.332409
    158 H68        -4.2000   -5.4180    3.0100 h1        1 MOL      0.161279
    159 H69        -1.7920   -4.8270    2.5780 hc        1 MOL      0.020979
    160 H70        -2.3680   -3.3910    1.6650 hc        1 MOL      0.020979
    161 H71        -3.5530   -5.1470    0.2610 hc        1 MOL      0.028339
    162 H72        -2.3720   -6.3570    0.9530 hc        1 MOL      0.028339
    163 N14        -3.8810   -2.3770    4.1950 n         1 MOL     -0.316458
    164 C55        -3.5280   -1.6950    5.4060 c3        1 MOL     -0.146219
    165 H73        -2.7940   -0.9200    5.1840 h1        1 MOL      0.073226
    166 H74        -4.4170   -1.2390    5.8390 h1        1 MOL      0.073226
    167 H75        -3.1020   -2.4060    6.1130 h1        1 MOL      0.073226
    168 H76        -4.1100   -1.8200    3.3840 hn        1 MOL      0.261623
    169 Ca1         0.8910   -3.3450   -1.2440 Ca        1 MOL      1.744117
    170 O24         0.0490   -2.9820   -3.7610 oh        1 MOL     -0.757780
    171 H77        -0.6040   -3.6360   -4.0310 ho        1 MOL      0.379013
    172 H78         0.4400   -2.6850   -4.5750 ho        1 MOL      0.379013
    173 O25         3.1010   -4.3960    0.0230 oh        1 MOL     -0.757780
    174 H79         3.8720   -4.5460   -0.5190 ho        1 MOL      0.379013
    175 H80         3.3640   -4.6810    0.8960 ho        1 MOL      0.379013
    176 O26         1.4460   -5.7160   -2.4290 oh        1 MOL     -0.757780
    177 H81         1.5860   -6.6130   -2.1260 ho        1 MOL      0.379013
    178 H82         1.1460   -5.8130   -3.3290 ho        1 MOL      0.379013
@<TRIPOS>BOND
     1    1    2 1   
     2    1    4 1   
     3    1    5 1   
     4    1    6 1   
     5    2    3 2   
     6    2    7 1   
     7    7    8 1   
     8    7   15 1   
     9    8    9 1   
    10    8   11 1   
    11    8   16 1   
    12    9   10 2   
    13    9   19 1   
    14   11   12 1   
    15   11   17 1   
    16   11   18 1   
    17   12   13 1   
    18   12   14 1   
    19   19   20 1   
    20   19   24 1   
    21   20   21 1   
    22   20   23 1   
    23   20   25 1   
    24   21   22 2   
    25   21   29 1   
    26   23   26 1   
    27   23   27 1   
    28   23   28 1   
    29   29   30 1   
    30   29   37 1   
    31   30   31 1   
    32   30   33 1   
    33   30   38 1   
    34   31   32 2   
    35   31   41 1   
    36   33   34 1   
    37   33   39 1   
    38   33   40 1   
    39   34   35 1   
    40   34   36 1   
    41   41   42 1   
    42   41   45 1   
    43   42   43 1   
    44   42   46 1   
    45   42   47 1   
    46   43   44 2   
    47   43   48 1   
    48   48   49 1   
    49   48   56 1   
    50   49   50 1   
    51   49   52 1   
    52   49   57 1   
    53   50   51 2   
    54   50   62 1   
    55   52   53 1   
    56   52   58 1   
    57   52   59 1   
    58   53   54 1   
    59   53   55 2   
    60   54   60 1   
    61   54   61 1   
    62   62   63 1   
    63   62   66 1   
    64   63   64 1   
    65   63   67 1   
    66   63   68 1   
    67   64   65 2   
    68   64   69 1   
    69   69   70 1   
    70   69   76 1   
    71   70   71 1   
    72   70   73 1   
    73   70   77 1   
    74   71   72 2   
    75   71   83 1   
    76   73   74 1   
    77   73   75 1   
    78   73   78 1   
    79   74   80 1   
    80   74   81 1   
    81   74   82 1   
    82   75   79 1   
    83   83   84 1   
    84   83   91 1   
    85   84   85 1   
    86   84   87 1   
    87   84   92 1   
    88   85   86 2   
    89   85  102 1   
    90   87   88 1   
    91   87   89 1   
    92   87   93 1   
    93   88   90 1   
    94   88   94 1   
    95   88   95 1   
    96   89   96 1   
    97   89   97 1   
    98   89   98 1   
    99   90   99 1   
   100   90  100 1   
   101   90  101 1   
   102  102  103 1   
   103  102  110 1   
   104  103  104 1   
   105  103  106 1   
   106  103  111 1   
   107  104  105 2   
   108  104  114 1   
   109  106  107 1   
   110  106  112 1   
   111  106  113 1   
   112  107  108 1   
   113  107  109 1   
   114  114  115 1   
   115  114  125 1   
   116  115  116 1   
   117  115  118 1   
   118  115  126 1   
   119  116  117 2   
   120  116  134 1   
   121  118  119 1   
   122  118  127 1   
   123  118  128 1   
   124  119  120 ar  
   125  119  121 ar  
   126  120  122 ar  
   127  120  129 1   
   128  121  123 ar  
   129  121  130 1   
   130  122  124 ar  
   131  122  131 1   
   132  123  124 ar  
   133  123  132 1   
   134  124  133 1   
   135  134  135 1   
   136  134  140 1   
   137  135  136 1   
   138  135  138 1   
   139  135  141 1   
   140  136  137 2   
   141  136  148 1   
   142  138  139 1   
   143  138  142 1   
   144  138  143 1   
   145  139  140 1   
   146  139  144 1   
   147  139  145 1   
   148  140  146 1   
   149  140  147 1   
   150  148  149 1   
   151  148  157 1   
   152  149  150 1   
   153  149  152 1   
   154  149  158 1   
   155  150  151 2   
   156  150  163 1   
   157  152  153 1   
   158  152  159 1   
   159  152  160 1   
   160  153  154 1   
   161  153  161 1   
   162  153  162 1   
   163  154  155 1   
   164  154  156 1   
   165  163  164 1   
   166  163  168 1   
   167  164  165 1   
   168  164  166 1   
   169  164  167 1   
   170  170  171 1   
   171  170  172 1   
   172  173  174 1   
   173  173  175 1   
   174  176  177 1   
   175  176  178 1   
@<TRIPOS>SUBSTRUCTURE
     1 MOL         1 TEMP              0 ****  ****    0 ROOT
