@<TRIPOS>MOLECULE
MOL
  191   184     1     0     0
SMALL
resp


@<TRIPOS>ATOM
      1 C1          6.2410    1.1730    5.8190 c3        1 MOL     -0.416570
      2 C2          5.5120    1.1070    4.4450 c         1 MOL      0.677684
      3 O1          4.2880    1.1520    4.3840 o         1 MOL     -0.604237
      4 H1          6.4050    0.1610    6.1910 hc        1 MOL      0.097575
      5 H2          7.2000    1.6760    5.6990 hc        1 MOL      0.097575
      6 H3          5.6270    1.7250    6.5310 hc        1 MOL      0.097575
      7 N1          6.3100    0.8670    3.4080 n         1 MOL     -0.380051
      8 C3          5.7920    0.8230    2.0510 c3        1 MOL     -0.004380
      9 C4          5.4010   -0.5820    1.5370 c         1 MOL      0.566090
     10 O2          4.6890   -0.6320    0.5310 o         1 MOL     -0.547662
     11 C5          6.7330    1.5010    1.0330 c3        1 MOL     -0.153064
     12 C6          8.2350    1.1760    1.0250 c         1 MOL      0.709035
     13 O3          8.9650    1.9550    0.3650 o         1 MOL     -0.653844
     14 O4          8.6470    0.2240    1.6900 o         1 MOL     -0.653844
     15 H4          7.2840    0.7280    3.6450 hn        1 MOL      0.239308
     16 H5          4.8330    1.3610    2.0330 h1        1 MOL      0.086720
     17 H6          6.4940    2.5480    1.2500 hc        1 MOL      0.045797
     18 H7          6.3270    1.2420    0.0600 hc        1 MOL      0.045797
     19 N2          5.7930   -1.6860    2.2770 n         1 MOL     -0.450561
     20 C7          5.2350   -3.0790    1.9960 c3        1 MOL     -0.086804
     21 C8          5.5660   -3.5940    0.5920 c         1 MOL      0.638611
     22 O5          6.7000   -3.5160    0.1720 o         1 MOL     -0.515132
     23 C9          5.7120   -3.9590    3.1820 c3        1 MOL      0.037464
     24 C10         5.1360   -3.4810    4.5170 c3        1 MOL      0.220324
     25 C11         5.8300   -4.0890    5.7780 c3        1 MOL     -0.160641
     26 C12         5.6300   -5.5720    5.7460 c3        1 MOL      0.175716
     27 N3          6.3000   -6.1990    6.9010 n4        1 MOL     -0.370367
     28 H8          6.1850   -1.5200    3.1890 hn        1 MOL      0.266604
     29 H9          4.1510   -3.0560    2.0920 h1        1 MOL      0.076537
     30 H10         6.7990   -3.8950    3.2300 hc        1 MOL     -0.008137
     31 H11         5.4350   -5.0000    2.9900 hc        1 MOL     -0.008137
     32 H12         4.0910   -3.7720    4.4880 hc        1 MOL     -0.043799
     33 H13         5.1150   -2.3920    4.5750 hc        1 MOL     -0.043799
     34 H14         5.3160   -3.8110    6.7070 hc        1 MOL      0.057855
     35 H15         6.8620   -3.7570    5.7920 hc        1 MOL      0.057855
     36 H16         6.1920   -6.0350    4.9350 hx        1 MOL      0.038336
     37 H17         4.5930   -5.9090    5.7680 hx        1 MOL      0.038336
     38 H18         5.8270   -5.9450    7.7500 hn        1 MOL      0.286366
     39 H19         6.3710   -7.1820    6.6840 hn        1 MOL      0.286366
     40 H20         7.2660   -5.9080    6.9380 hn        1 MOL      0.286366
     41 N4          4.5720   -4.1500   -0.0990 n         1 MOL     -0.562579
     42 C13         4.7240   -4.4870   -1.5090 c3        1 MOL      0.163143
     43 C14         4.5500   -3.2680   -2.4470 c         1 MOL      0.645925
     44 O6          3.5860   -3.1140   -3.1420 o         1 MOL     -0.604080
     45 C15         3.6610   -5.5550   -1.8990 c3        1 MOL     -0.349058
     46 C16         2.1330   -5.2850   -1.7030 c         1 MOL      0.906344
     47 O7          1.3500   -6.0000   -2.3270 o         1 MOL     -0.790380
     48 O8          1.7260   -4.5740   -0.8030 o         1 MOL     -0.790380
     49 H21         3.7090   -4.3850    0.3720 hn        1 MOL      0.335887
     50 H22         5.6950   -4.9630   -1.6990 h1        1 MOL      0.040335
     51 H23         3.9340   -6.5160   -1.4580 hc        1 MOL      0.081439
     52 H24         3.7710   -5.6880   -2.9810 hc        1 MOL      0.081439
     53 N5          5.5180   -2.3230   -2.4070 n         1 MOL     -0.567381
     54 C17         5.5440   -1.0750   -3.1690 c3        1 MOL      0.491803
     55 C18         6.6000   -0.0660   -2.7140 c         1 MOL      0.284207
     56 O9          7.4930   -0.4720   -1.9430 o         1 MOL     -0.426557
     57 H25         6.2880   -2.4280   -1.7610 hn        1 MOL      0.270190
     58 H26         4.5730   -0.5820   -3.1910 h1        1 MOL     -0.074827
     59 H27         5.6420   -1.3470   -4.2160 h1        1 MOL     -0.074827
     60 N6          6.5870    1.2430   -2.9620 n         1 MOL     -0.350314
     61 C19         5.6420    2.1750   -3.6190 c3        1 MOL      0.275902
     62 C20         5.8380    3.4960   -2.9030 c         1 MOL      0.248185
     63 O10         6.9440    4.0520   -2.8990 o         1 MOL     -0.443671
     64 C21         6.0440    2.2140   -5.1290 c3        1 MOL     -0.475559
     65 C22         5.3050    3.2790   -5.9260 c         1 MOL      0.701408
     66 N7          4.2660    2.9180   -6.6560 n         1 MOL     -0.812294
     67 O11         5.5620    4.4790   -5.8160 o         1 MOL     -0.536258
     68 H28         7.2880    1.7180   -2.4170 hn        1 MOL      0.292592
     69 H29         4.6440    1.7360   -3.5510 h1        1 MOL      0.028408
     70 H30         5.8030    1.2930   -5.6600 hc        1 MOL      0.136636
     71 H31         7.1050    2.3780   -5.3230 hc        1 MOL      0.136636
     72 H32         4.2660    1.9260   -6.8340 hn        1 MOL      0.369320
     73 H33         3.7420    3.6190   -7.1660 hn        1 MOL      0.369320
     74 N8          4.7920    4.1370   -2.3880 n         1 MOL     -0.166861
     75 C23         3.5380    3.5450   -2.0300 c3        1 MOL     -0.308782
     76 C24         2.7510    4.3540   -0.9990 c         1 MOL      0.735974
     77 O12         3.2670    5.1200   -0.2370 o         1 MOL     -0.540250
     78 H34         5.0040    5.0450   -2.0030 hn        1 MOL      0.257468
     79 H35         3.7130    2.4940   -1.7910 h1        1 MOL      0.106090
     80 H36         2.9860    3.5770   -2.9640 h1        1 MOL      0.106090
     81 N9          1.4550    4.1820   -1.0290 n         1 MOL     -0.583026
     82 C25         0.5860    4.8010   -0.0430 c3        1 MOL      0.257260
     83 C26        -0.6490    3.9450    0.1410 c         1 MOL      0.388128
     84 O13        -0.9120    3.0790   -0.7030 o         1 MOL     -0.501187
     85 C27         0.1790    6.2310   -0.4170 c3        1 MOL     -0.218901
     86 C28        -0.5780    7.1070    0.5770 ca        1 MOL      0.054077
     87 C29        -1.9240    7.4740    0.3920 ca        1 MOL     -0.139706
     88 C30         0.0760    7.4660    1.8130 ca        1 MOL     -0.139706
     89 C31        -2.6210    8.2390    1.3250 ca        1 MOL     -0.268959
     90 C32        -0.6740    8.1840    2.7870 ca        1 MOL     -0.268959
     91 C33        -2.0160    8.5570    2.5650 ca        1 MOL      0.357837
     92 O14        -2.6860    9.2840    3.4800 oh        1 MOL     -0.492791
     93 H37         1.0670    3.5690   -1.7320 hn        1 MOL      0.288653
     94 H38         1.0700    4.8160    0.9350 h1        1 MOL      0.034499
     95 H39        -0.4280    6.1240   -1.3190 hc        1 MOL      0.092349
     96 H40         0.9860    6.8530   -0.7850 hc        1 MOL      0.092349
     97 H41        -2.3450    7.2260   -0.5680 ha        1 MOL      0.134697
     98 H42         1.0710    7.1420    2.0740 ha        1 MOL      0.134697
     99 H43        -3.6360    8.5580    1.1670 ha        1 MOL      0.144622
    100 H44        -0.2430    8.4680    3.7320 ha        1 MOL      0.144622
    101 H45        -2.1860    9.5260    4.2700 ho        1 MOL      0.368339
    102 N10        -1.5450    4.2600    1.1140 n         1 MOL     -0.259713
    103 C34        -2.8190    3.5220    1.3870 c3        1 MOL      0.022620
    104 C35        -3.9390    3.7500    0.3690 c         1 MOL      0.581800
    105 O15        -3.9530    4.8540   -0.2350 o         1 MOL     -0.505934
    106 C36        -3.2430    3.5720    2.8070 c3        1 MOL      0.037535
    107 C37        -2.2540    2.9810    3.8190 c3        1 MOL      0.038481
    108 C38        -3.2880    5.1090    3.2460 c3        1 MOL     -0.156350
    109 C39        -1.8140    1.5270    3.8110 c3        1 MOL     -0.206975
    110 H46        -1.3040    4.9460    1.8200 hn        1 MOL      0.203241
    111 H47        -2.6270    2.4590    1.2330 h1        1 MOL      0.011473
    112 H48        -4.1880    3.0220    2.8580 hc        1 MOL      0.031208
    113 H49        -2.6950    3.1090    4.8070 hc        1 MOL     -0.001355
    114 H50        -1.3770    3.6110    3.7350 hc        1 MOL     -0.001355
    115 H51        -4.0570    5.6650    2.7020 hc        1 MOL      0.043714
    116 H52        -3.6390    5.2000    4.2750 hc        1 MOL      0.043714
    117 H53        -2.3560    5.6640    3.1990 hc        1 MOL      0.043714
    118 H54        -1.1930    1.2950    2.9440 hc        1 MOL      0.062649
    119 H55        -1.1320    1.3580    4.6390 hc        1 MOL      0.062649
    120 H56        -2.7080    0.9070    3.8840 hc        1 MOL      0.062649
    121 N11        -4.8720    2.8000    0.2130 n         1 MOL     -0.480697
    122 C40        -5.9660    2.8000   -0.7210 c3        1 MOL     -0.077348
    123 C41        -6.3140    1.4750   -1.3820 c         1 MOL      0.719741
    124 O16        -5.9550    0.4220   -0.8720 o         1 MOL     -0.483361
    125 C42        -7.1840    3.3970   -0.0530 c3        1 MOL      0.127460
    126 O17        -7.5560    2.8180    1.1770 oh        1 MOL     -0.604659
    127 H57        -4.7180    1.9480    0.7300 hn        1 MOL      0.310910
    128 H58        -5.7100    3.4200   -1.5730 h1        1 MOL      0.085095
    129 H59        -8.0770    3.3210   -0.6680 h1        1 MOL      0.035522
    130 H60        -7.1360    4.4760    0.0720 h1        1 MOL      0.035522
    131 H61        -8.1490    3.4090    1.6330 ho        1 MOL      0.417740
    132 N12        -7.0250    1.4550   -2.5470 n         1 MOL     -0.645411
    133 C43        -7.5130    0.2840   -3.3420 c3        1 MOL      0.172547
    134 C44        -8.3820   -0.7210   -2.5630 c         1 MOL      0.320467
    135 O18        -8.4520   -1.9020   -2.9740 o         1 MOL     -0.454594
    136 C45        -6.3520   -0.4390   -3.9980 c3        1 MOL     -0.300901
    137 H62        -7.2570    2.3200   -3.0280 hn        1 MOL      0.317474
    138 H63        -8.1590    0.6970   -4.1100 h1        1 MOL      0.098046
    139 H64        -6.0020    0.1970   -4.8140 hc        1 MOL      0.098707
    140 H65        -5.6020   -0.7050   -3.2480 hc        1 MOL      0.098707
    141 H66        -6.5890   -1.3650   -4.5130 hc        1 MOL      0.098707
    142 N13        -8.8900   -0.3670   -1.3390 n         1 MOL     -0.385425
    143 C46        -9.8040   -1.1250   -0.4590 c3        1 MOL      0.326412
    144 C47        -9.2580   -2.4220    0.2150 c         1 MOL      0.405381
    145 O19       -10.0060   -3.4120    0.3970 o         1 MOL     -0.485368
    146 C48       -11.2500   -1.1790   -1.0360 c3        1 MOL     -0.439851
    147 H67        -8.6600    0.5630   -1.0200 hn        1 MOL      0.231812
    148 H68        -9.8830   -0.5070    0.4430 h1        1 MOL     -0.026924
    149 H69       -11.5410   -0.1750   -1.3160 hc        1 MOL      0.123357
    150 H70       -11.3190   -1.8190   -1.9200 hc        1 MOL      0.123357
    151 H71       -11.8310   -1.6880   -0.2660 hc        1 MOL      0.123357
    152 N14        -7.9920   -2.3660    0.5950 n         1 MOL     -0.310392
    153 C49        -7.3420   -3.4940    1.2510 c3        1 MOL     -0.265588
    154 C50        -7.6760   -3.6530    2.7320 c         1 MOL      0.486175
    155 O20        -7.7970   -4.8050    3.1810 o         1 MOL     -0.522120
    156 C51        -5.8330   -3.3730    1.0630 c3        1 MOL      0.282798
    157 C52        -5.3390   -3.4850   -0.3810 c3        1 MOL     -0.069541
    158 C53        -3.8420   -3.8300   -0.4880 c         1 MOL      0.569291
    159 O21        -2.9660   -3.1020    0.0430 o         1 MOL     -0.698244
    160 O22        -3.4510   -4.8630   -1.1350 o         1 MOL     -0.698244
    161 H72        -7.4090   -1.5580    0.4400 hn        1 MOL      0.236409
    162 H73        -7.6620   -4.3790    0.7070 h1        1 MOL      0.182421
    163 H74        -5.3500   -4.1360    1.6630 hc        1 MOL     -0.055673
    164 H75        -5.5180   -2.4140    1.4440 hc        1 MOL     -0.055673
    165 H76        -5.3570   -2.4640   -0.7740 hc        1 MOL      0.024035
    166 H77        -5.9470   -4.1990   -0.9300 hc        1 MOL      0.024035
    167 N15        -7.6050   -2.5720    3.4730 n         1 MOL     -0.223793
    168 C54        -7.7680   -2.5120    4.8620 c3        1 MOL     -0.183140
    169 H78        -7.6120   -3.5030    5.2880 h1        1 MOL      0.088137
    170 H79        -7.0410   -1.8180    5.2840 h1        1 MOL      0.088137
    171 H80        -8.7760   -2.1710    5.0960 h1        1 MOL      0.088137
    172 H81        -7.5350   -1.6640    3.0290 hn        1 MOL      0.232258
    173 Ca1        -0.8940   -4.3210   -1.6020 Ca        1 MOL      1.817832
    174 O23        -0.6610   -5.3050    0.9860 oh        1 MOL     -0.846504
    175 H82        -0.3100   -6.0960    1.3980 ho        1 MOL      0.411982
    176 H83        -1.1870   -4.8970    1.6720 ho        1 MOL      0.411982
    177 O24        -0.8740   -4.9420   -4.2420 oh        1 MOL     -0.846504
    178 H84        -1.3670   -4.6340   -5.0060 ho        1 MOL      0.411982
    179 H85        -0.2100   -5.5310   -4.6020 ho        1 MOL      0.411982
    180 O25         0.8440   -2.7120   -3.2300 oh        1 MOL     -0.846504
    181 H86         1.7610   -2.7800   -2.9450 ho        1 MOL      0.411982
    182 H87         0.7760   -1.8280   -3.5790 ho        1 MOL      0.411982
    183 O26        -1.3630   -6.8410   -2.3870 oh        1 MOL     -0.846504
    184 H88        -1.7880   -7.4950   -2.9500 ho        1 MOL      0.411982
    185 H89        -0.4370   -7.0660   -2.4190 ho        1 MOL      0.411982
    186 O27        -0.1570   -2.1400   -0.2260 oh        1 MOL     -0.846504
    187 H90        -0.5310   -1.2720   -0.0800 ho        1 MOL      0.411982
    188 H91         0.7790   -2.0330   -0.0890 ho        1 MOL      0.411982
    189 O28        -2.1950   -2.3130   -2.7680 oh        1 MOL     -0.846504
    190 H92        -2.4840   -2.3200   -3.6920 ho        1 MOL      0.411982
    191 H93        -2.4830   -1.4620   -2.4380 ho        1 MOL      0.411982
@<TRIPOS>BOND
     1    1    2 1   
     2    1    4 1   
     3    1    5 1   
     4    1    6 1   
     5    2    3 2   
     6    2    7 1   
     7    7    8 1   
     8    7   15 1   
     9    8    9 1   
    10    8   11 1   
    11    8   16 1   
    12    9   10 2   
    13    9   19 1   
    14   11   12 1   
    15   11   17 1   
    16   11   18 1   
    17   12   13 1   
    18   12   14 1   
    19   19   20 1   
    20   19   28 1   
    21   20   21 1   
    22   20   23 1   
    23   20   29 1   
    24   21   22 2   
    25   21   41 1   
    26   23   24 1   
    27   23   30 1   
    28   23   31 1   
    29   24   25 1   
    30   24   32 1   
    31   24   33 1   
    32   25   26 1   
    33   25   34 1   
    34   25   35 1   
    35   26   27 1   
    36   26   36 1   
    37   26   37 1   
    38   27   38 1   
    39   27   39 1   
    40   27   40 1   
    41   41   42 1   
    42   41   49 1   
    43   42   43 1   
    44   42   45 1   
    45   42   50 1   
    46   43   44 2   
    47   43   53 1   
    48   45   46 1   
    49   45   51 1   
    50   45   52 1   
    51   46   47 1   
    52   46   48 1   
    53   53   54 1   
    54   53   57 1   
    55   54   55 1   
    56   54   58 1   
    57   54   59 1   
    58   55   56 2   
    59   55   60 1   
    60   60   61 1   
    61   60   68 1   
    62   61   62 1   
    63   61   64 1   
    64   61   69 1   
    65   62   63 2   
    66   62   74 1   
    67   64   65 1   
    68   64   70 1   
    69   64   71 1   
    70   65   66 1   
    71   65   67 2   
    72   66   72 1   
    73   66   73 1   
    74   74   75 1   
    75   74   78 1   
    76   75   76 1   
    77   75   79 1   
    78   75   80 1   
    79   76   77 2   
    80   76   81 1   
    81   81   82 1   
    82   81   93 1   
    83   82   83 1   
    84   82   85 1   
    85   82   94 1   
    86   83   84 2   
    87   83  102 1   
    88   85   86 1   
    89   85   95 1   
    90   85   96 1   
    91   86   87 ar  
    92   86   88 ar  
    93   87   89 ar  
    94   87   97 1   
    95   88   90 ar  
    96   88   98 1   
    97   89   91 ar  
    98   89   99 1   
    99   90   91 ar  
   100   90  100 1   
   101   91   92 1   
   102   92  101 1   
   103  102  103 1   
   104  102  110 1   
   105  103  104 1   
   106  103  106 1   
   107  103  111 1   
   108  104  105 2   
   109  104  121 1   
   110  106  107 1   
   111  106  108 1   
   112  106  112 1   
   113  107  109 1   
   114  107  113 1   
   115  107  114 1   
   116  108  115 1   
   117  108  116 1   
   118  108  117 1   
   119  109  118 1   
   120  109  119 1   
   121  109  120 1   
   122  121  122 1   
   123  121  127 1   
   124  122  123 1   
   125  122  125 1   
   126  122  128 1   
   127  123  124 2   
   128  123  132 1   
   129  125  126 1   
   130  125  129 1   
   131  125  130 1   
   132  126  131 1   
   133  132  133 1   
   134  132  137 1   
   135  133  134 1   
   136  133  136 1   
   137  133  138 1   
   138  134  135 2   
   139  134  142 1   
   140  136  139 1   
   141  136  140 1   
   142  136  141 1   
   143  142  143 1   
   144  142  147 1   
   145  143  144 1   
   146  143  146 1   
   147  143  148 1   
   148  144  145 2   
   149  144  152 1   
   150  146  149 1   
   151  146  150 1   
   152  146  151 1   
   153  152  153 1   
   154  152  161 1   
   155  153  154 1   
   156  153  156 1   
   157  153  162 1   
   158  154  155 2   
   159  154  167 1   
   160  156  157 1   
   161  156  163 1   
   162  156  164 1   
   163  157  158 1   
   164  157  165 1   
   165  157  166 1   
   166  158  159 1   
   167  158  160 1   
   168  167  168 1   
   169  167  172 1   
   170  168  169 1   
   171  168  170 1   
   172  168  171 1   
   173  174  175 1   
   174  174  176 1   
   175  177  178 1   
   176  177  179 1   
   177  180  181 1   
   178  180  182 1   
   179  183  184 1   
   180  183  185 1   
   181  186  187 1   
   182  186  188 1   
   183  189  190 1   
   184  189  191 1   
@<TRIPOS>SUBSTRUCTURE
     1 MOL         1 TEMP              0 ****  ****    0 ROOT
