@<TRIPOS>MOLECULE
MOL
  181   177     1     0     0
SMALL
resp


@<TRIPOS>ATOM
      1 C1        -12.5440    4.8510   -2.2150 c3        1 MOL     -0.481473
      2 C2        -12.1610    3.4490   -2.6990 c         1 MOL      0.787119
      3 O1        -12.0450    3.1370   -3.9020 o         1 MOL     -0.614374
      4 H1        -13.3570    5.2370   -2.8290 hc        1 MOL      0.130375
      5 H2        -12.8660    4.8020   -1.1760 hc        1 MOL      0.130375
      6 H3        -11.6810    5.5120   -2.2980 hc        1 MOL      0.130375
      7 N1        -11.9260    2.4600   -1.8280 n         1 MOL     -0.720979
      8 C3        -11.9900    2.6080   -0.3570 c3        1 MOL      0.260081
      9 C4        -12.4470    1.3310    0.3650 c         1 MOL      0.380932
     10 O2        -12.8920    1.2870    1.5180 o         1 MOL     -0.533770
     11 C5        -10.6870    3.1510    0.2600 c3        1 MOL     -0.281219
     12 C6         -9.4130    2.3140   -0.0020 c         1 MOL      0.850056
     13 O3         -8.2970    2.9300    0.2530 o         1 MOL     -0.769855
     14 O4         -9.3510    1.0900   -0.2950 o         1 MOL     -0.769855
     15 H4        -11.5900    1.5930   -2.2280 hn        1 MOL      0.350196
     16 H5        -12.7230    3.3530   -0.0650 h1        1 MOL      0.036611
     17 H6        -10.8410    3.2980    1.3280 hc        1 MOL      0.077812
     18 H7        -10.5400    4.1260   -0.2060 hc        1 MOL      0.077812
     19 N2        -12.2440    0.1370   -0.2220 n         1 MOL     -0.389219
     20 C7        -12.6590   -1.1850    0.2520 c3        1 MOL      0.171281
     21 C8        -11.5270   -1.9900    0.9540 c         1 MOL      0.407192
     22 O5        -11.7090   -3.1150    1.4120 o         1 MOL     -0.552136
     23 C9        -13.3190   -2.0310   -0.8590 c3        1 MOL     -0.290654
     24 H8        -11.7720    0.1910   -1.1130 hn        1 MOL      0.287792
     25 H9        -13.4170   -0.9290    0.9990 h1        1 MOL      0.088700
     26 H10       -13.2320   -3.0560   -0.5190 hc        1 MOL      0.083332
     27 H11       -14.3750   -1.7890   -0.9370 hc        1 MOL      0.083332
     28 H12       -12.9160   -1.9430   -1.8710 hc        1 MOL      0.083332
     29 N3        -10.2650   -1.5390    0.9110 n         1 MOL     -0.231228
     30 C10        -9.0980   -2.3810    1.3810 c3        1 MOL     -0.033181
     31 C11        -7.9730   -1.6600    2.0690 c         1 MOL      0.468011
     32 O6         -7.8940   -0.4330    1.9970 o         1 MOL     -0.522550
     33 C12        -8.5970   -3.2530    0.1940 c3        1 MOL     -0.258652
     34 C13        -8.1800   -2.3530   -0.9520 c         1 MOL      0.733971
     35 O7         -7.3120   -1.4380   -0.7940 o         1 MOL     -0.692587
     36 O8         -8.5170   -2.5910   -2.1120 o         1 MOL     -0.692587
     37 H13       -10.1480   -0.7090    0.3500 hn        1 MOL      0.226512
     38 H14        -9.4780   -3.0520    2.1550 h1        1 MOL      0.079805
     39 H15        -9.4800   -3.7930   -0.1450 hc        1 MOL      0.086156
     40 H16        -7.8450   -3.9900    0.4890 hc        1 MOL      0.086156
     41 N4         -7.0050   -2.3990    2.6890 n         1 MOL     -0.296378
     42 C14        -5.8510   -1.8500    3.3480 c3        1 MOL     -0.287672
     43 C15        -4.8430   -1.0300    2.5860 c         1 MOL      0.732056
     44 O9         -5.0700   -0.5820    1.4720 o         1 MOL     -0.715272
     45 H17        -7.0880   -3.4070    2.6190 hn        1 MOL      0.270885
     46 H18        -5.3090   -2.7080    3.7600 h1        1 MOL      0.116898
     47 H19        -6.2360   -1.2810    4.2000 h1        1 MOL      0.116898
     48 N5         -3.7000   -0.9280    3.1740 n         1 MOL     -0.498202
     49 C16        -2.6950   -0.0220    2.7410 c3        1 MOL     -0.020601
     50 C17        -1.8010   -0.6410    1.6030 c         1 MOL      0.573559
     51 O10        -0.6260   -0.3000    1.4600 o         1 MOL     -0.436468
     52 C18        -1.9150    0.5070    3.9270 c3        1 MOL     -0.292678
     53 C19        -2.8920    1.0740    4.9120 c         1 MOL      0.697424
     54 N6         -3.1790    0.3250    5.9490 n         1 MOL     -0.748919
     55 O11        -3.3770    2.2190    4.8320 o         1 MOL     -0.540589
     56 H20        -3.5370   -1.4220    4.0420 hn        1 MOL      0.262645
     57 H21        -3.1500    0.8840    2.3290 h1        1 MOL      0.152243
     58 H22        -1.1260    1.2450    3.7320 hc        1 MOL      0.121947
     59 H23        -1.4350   -0.3390    4.4160 hc        1 MOL      0.121947
     60 H24        -2.7780   -0.5980    5.9470 hn        1 MOL      0.341881
     61 H25        -4.0590    0.4800    6.4190 hn        1 MOL      0.341881
     62 N7         -2.3860   -1.6360    0.9070 n         1 MOL     -0.547124
     63 C20        -1.7800   -2.4190   -0.1120 c3        1 MOL      0.075558
     64 C21        -1.4010   -1.5790   -1.3280 c         1 MOL      0.493682
     65 O12        -1.9610   -0.4910   -1.4820 o         1 MOL     -0.525241
     66 H26        -3.2970   -1.9180    1.2430 hn        1 MOL      0.351100
     67 H27        -2.4830   -3.1960   -0.4050 h1        1 MOL      0.076789
     68 H28        -0.9710   -3.0040    0.3210 h1        1 MOL      0.076789
     69 N8         -0.4600   -1.8890   -2.2580 n         1 MOL     -0.471114
     70 C22         0.2670   -3.1530   -2.4340 c3        1 MOL     -0.045555
     71 C23         1.7850   -2.9470   -2.2110 c         1 MOL      0.614075
     72 O13         2.4540   -3.9110   -2.0270 o         1 MOL     -0.567764
     73 C24         0.0290   -3.7380   -3.8280 c3        1 MOL      0.397118
     74 C25         0.5850   -5.0440   -4.2750 c3        1 MOL     -0.328464
     75 O14        -1.3100   -3.8000   -4.0260 oh        1 MOL     -0.608056
     76 H29        -0.3720   -1.1930   -2.9900 hn        1 MOL      0.297901
     77 H30        -0.1200   -3.8630   -1.7040 h1        1 MOL      0.104220
     78 H31         0.4440   -3.0510   -4.5710 h1        1 MOL     -0.046405
     79 H32        -1.4710   -3.6740   -4.9630 ho        1 MOL      0.377140
     80 H33         0.2230   -5.5280   -5.1820 hc        1 MOL      0.081621
     81 H34         1.6750   -4.9900   -4.2670 hc        1 MOL      0.081621
     82 H35         0.2890   -5.8010   -3.5650 hc        1 MOL      0.081621
     83 N9          2.3180   -1.7460   -2.1570 n         1 MOL     -0.361810
     84 C26         3.6580   -1.2870   -1.8550 c3        1 MOL      0.008305
     85 C27         3.7710   -0.9560   -0.3440 c         1 MOL      0.603785
     86 O15         2.8430   -0.4870    0.3010 o         1 MOL     -0.584308
     87 C28         4.2080   -0.2380   -2.7800 c3        1 MOL      0.017031
     88 C29         3.2870    1.0190   -2.8670 c3        1 MOL     -0.050631
     89 C30         4.7850   -0.8720   -4.0840 c3        1 MOL     -0.403444
     90 C31         3.9490    2.0670   -3.7300 c3        1 MOL     -0.212969
     91 H36         1.7480   -1.0040   -2.5210 hn        1 MOL      0.147018
     92 H37         4.2490   -2.1970   -1.9390 h1        1 MOL      0.089716
     93 H38         5.0350    0.0570   -2.1280 hc        1 MOL      0.114226
     94 H39         3.0250    1.5130   -1.9320 hc        1 MOL      0.067954
     95 H40         2.2980    0.8740   -3.3160 hc        1 MOL      0.067954
     96 H41         4.0690   -0.9190   -4.9050 hc        1 MOL      0.108085
     97 H42         5.5090   -0.1240   -4.3980 hc        1 MOL      0.108085
     98 H43         5.2280   -1.8290   -3.8200 hc        1 MOL      0.108085
     99 H44         4.9250    2.3580   -3.3510 hc        1 MOL      0.044856
    100 H45         3.9470    1.6690   -4.7450 hc        1 MOL      0.044856
    101 H46         3.2750    2.9160   -3.8440 hc        1 MOL      0.044856
    102 N10         4.9010   -1.1950    0.2740 n         1 MOL     -0.377663
    103 C32         6.0650   -1.9140   -0.2200 c3        1 MOL      0.082689
    104 C33         7.4140   -1.4990    0.3760 c         1 MOL      0.260645
    105 O16         7.4190   -0.9450    1.4670 o         1 MOL     -0.419273
    106 C34         5.8760   -3.4410   -0.0120 c3        1 MOL     -0.031740
    107 C35         5.8070   -4.0190    1.4300 c         1 MOL      0.736651
    108 O17         4.7000   -4.2620    1.9390 o         1 MOL     -0.729510
    109 O18         6.9350   -4.4150    1.8640 o         1 MOL     -0.729510
    110 H47         5.0210   -0.9790    1.2550 hn        1 MOL      0.296403
    111 H48         6.1030   -1.7800   -1.3060 h1        1 MOL     -0.021188
    112 H49         6.6890   -3.9800   -0.4880 hc        1 MOL     -0.028010
    113 H50         4.9280   -3.6660   -0.4870 hc        1 MOL     -0.028010
    114 N11         8.5590   -1.8260   -0.2380 n         1 MOL     -0.490852
    115 C36         9.8270   -1.2550    0.0820 c3        1 MOL      0.576915
    116 C37        10.5620   -0.6780   -1.0330 c         1 MOL     -0.000121
    117 O19        10.8720   -1.3380   -2.0030 o         1 MOL     -0.513444
    118 C38        10.7730   -2.2960    0.6840 c3        1 MOL     -0.327124
    119 C39        11.9090   -1.7020    1.4680 ca        1 MOL      0.229239
    120 C40        13.1300   -1.3270    0.7810 ca        1 MOL     -0.294454
    121 C41        11.7060   -1.3340    2.8220 ca        1 MOL     -0.294454
    122 C42        14.1940   -0.8630    1.5550 ca        1 MOL     -0.050946
    123 C43        12.7660   -0.7680    3.5890 ca        1 MOL     -0.050946
    124 C44        14.0000   -0.6100    2.9500 ca        1 MOL     -0.176733
    125 H51         8.3960   -2.4430   -1.0120 hn        1 MOL      0.328317
    126 H52         9.6970   -0.4230    0.7730 h1        1 MOL     -0.068766
    127 H53        11.0810   -2.9780   -0.1180 hc        1 MOL      0.097128
    128 H54        10.3000   -2.9780    1.3860 hc        1 MOL      0.097128
    129 H55        13.1820   -1.3310   -0.2980 ha        1 MOL      0.185614
    130 H56        10.7330   -1.4410    3.2690 ha        1 MOL      0.185614
    131 H57        15.1600   -0.7070    1.1040 ha        1 MOL      0.103364
    132 H58        12.5420   -0.3810    4.5720 ha        1 MOL      0.103364
    133 H59        14.8740   -0.2780    3.4920 ha        1 MOL      0.088742
    134 N12        11.0170    0.5570   -0.8970 n         1 MOL      0.419664
    135 C45        10.9710    1.5050    0.2410 c3        1 MOL     -0.383580
    136 C46         9.7320    2.5170    0.3650 c         1 MOL      0.590148
    137 O20         9.6790    3.3210    1.2860 o         1 MOL     -0.523848
    138 C47        12.2740    2.3120    0.0390 c3        1 MOL      0.101565
    139 C48        12.5520    2.3210   -1.3620 c3        1 MOL      0.093838
    140 C49        12.0520    1.0050   -1.8380 c3        1 MOL     -0.272556
    141 H60        11.0450    0.9680    1.1890 h1        1 MOL      0.186593
    142 H61        12.1270    3.3420    0.3740 hc        1 MOL     -0.021317
    143 H62        13.1280    1.9020    0.5790 hc        1 MOL     -0.021317
    144 H63        12.0220    3.1500   -1.8380 hc        1 MOL     -0.005546
    145 H64        13.6250    2.4680   -1.5070 hc        1 MOL     -0.005546
    146 H65        11.5010    1.2570   -2.7450 h1        1 MOL      0.066705
    147 H66        12.8040    0.2170   -1.8070 h1        1 MOL      0.066705
    148 N13         8.7240    2.4370   -0.5400 n         1 MOL     -0.482977
    149 C50         7.4900    3.3100   -0.5460 c3        1 MOL      0.296200
    150 C51         7.1110    3.8710   -1.9070 c         1 MOL      0.453340
    151 O21         7.4170    3.2970   -2.8880 o         1 MOL     -0.578918
    152 C52         6.4230    2.3280    0.0460 c3        1 MOL      0.024679
    153 C53         5.2540    3.0910    0.6730 c3        1 MOL     -0.175048
    154 C54         5.5490    3.7540    2.0740 c         1 MOL      0.714355
    155 O22         6.2210    4.8160    2.0810 o         1 MOL     -0.701689
    156 O23         5.1380    3.2750    3.1210 o         1 MOL     -0.701689
    157 H67         8.8190    1.8300   -1.3410 hn        1 MOL      0.203785
    158 H68         7.6020    4.1110    0.1810 h1        1 MOL      0.021625
    159 H69         6.8440    1.6000    0.7490 hc        1 MOL      0.012838
    160 H70         5.9750    1.7350   -0.7430 hc        1 MOL      0.012838
    161 H71         4.3940    2.4230    0.7750 hc        1 MOL     -0.001271
    162 H72         4.8290    3.8520    0.0340 hc        1 MOL     -0.001271
    163 N14         6.4610    4.9970   -2.1090 n         1 MOL     -0.382689
    164 C55         6.2790    6.0540   -1.1240 c3        1 MOL      0.036707
    165 H73         5.4790    6.7190   -1.4500 h1        1 MOL      0.015072
    166 H74         6.0170    5.6140   -0.1620 h1        1 MOL      0.015072
    167 H75         7.2050    6.6220   -1.0250 h1        1 MOL      0.015072
    168 H76         6.2820    5.1950   -3.0810 hn        1 MOL      0.265444
    169 Ca1        -6.5630    0.9130   -0.1170 Ca        1 MOL      1.672449
    170 O24        -7.4650    1.9720   -2.6740 oh        1 MOL     -0.750066
    171 H77        -7.1230    2.6380   -3.2670 ho        1 MOL      0.378515
    172 H78        -7.4370    1.1600   -3.1760 ho        1 MOL      0.378515
    173 O25        -5.1180   -0.1210   -2.1300 oh        1 MOL     -0.750066
    174 H79        -5.7440   -0.5580   -2.7160 ho        1 MOL      0.378515
    175 H80        -4.3360    0.0040   -2.6690 ho        1 MOL      0.378515
    176 O26        -6.6840    2.3300    2.3640 oh        1 MOL     -0.750066
    177 H81        -6.3990    2.4660    3.2660 ho        1 MOL      0.378515
    178 H82        -7.6370    2.4090    2.3940 ho        1 MOL      0.378515
    179 O27        -4.7570    2.6390   -0.0920 oh        1 MOL     -0.750066
    180 H83        -4.3330    3.0940    0.6270 ho        1 MOL      0.378515
    181 H84        -4.0560    2.4750   -0.7310 ho        1 MOL      0.378515
@<TRIPOS>BOND
     1    1    2 1   
     2    1    4 1   
     3    1    5 1   
     4    1    6 1   
     5    2    3 2   
     6    2    7 1   
     7    7    8 1   
     8    7   15 1   
     9    8    9 1   
    10    8   11 1   
    11    8   16 1   
    12    9   10 2   
    13    9   19 1   
    14   11   12 1   
    15   11   17 1   
    16   11   18 1   
    17   12   13 1   
    18   12   14 1   
    19   19   20 1   
    20   19   24 1   
    21   20   21 1   
    22   20   23 1   
    23   20   25 1   
    24   21   22 2   
    25   21   29 1   
    26   23   26 1   
    27   23   27 1   
    28   23   28 1   
    29   29   30 1   
    30   29   37 1   
    31   30   31 1   
    32   30   33 1   
    33   30   38 1   
    34   31   32 2   
    35   31   41 1   
    36   33   34 1   
    37   33   39 1   
    38   33   40 1   
    39   34   35 1   
    40   34   36 1   
    41   41   42 1   
    42   41   45 1   
    43   42   43 1   
    44   42   46 1   
    45   42   47 1   
    46   43   44 2   
    47   43   48 1   
    48   48   49 1   
    49   48   56 1   
    50   49   50 1   
    51   49   52 1   
    52   49   57 1   
    53   50   51 2   
    54   50   62 1   
    55   52   53 1   
    56   52   58 1   
    57   52   59 1   
    58   53   54 1   
    59   53   55 2   
    60   54   60 1   
    61   54   61 1   
    62   62   63 1   
    63   62   66 1   
    64   63   64 1   
    65   63   67 1   
    66   63   68 1   
    67   64   65 2   
    68   64   69 1   
    69   69   70 1   
    70   69   76 1   
    71   70   71 1   
    72   70   73 1   
    73   70   77 1   
    74   71   72 2   
    75   71   83 1   
    76   73   74 1   
    77   73   75 1   
    78   73   78 1   
    79   74   80 1   
    80   74   81 1   
    81   74   82 1   
    82   75   79 1   
    83   83   84 1   
    84   83   91 1   
    85   84   85 1   
    86   84   87 1   
    87   84   92 1   
    88   85   86 2   
    89   85  102 1   
    90   87   88 1   
    91   87   89 1   
    92   87   93 1   
    93   88   90 1   
    94   88   94 1   
    95   88   95 1   
    96   89   96 1   
    97   89   97 1   
    98   89   98 1   
    99   90   99 1   
   100   90  100 1   
   101   90  101 1   
   102  102  103 1   
   103  102  110 1   
   104  103  104 1   
   105  103  106 1   
   106  103  111 1   
   107  104  105 2   
   108  104  114 1   
   109  106  107 1   
   110  106  112 1   
   111  106  113 1   
   112  107  108 1   
   113  107  109 1   
   114  114  115 1   
   115  114  125 1   
   116  115  116 1   
   117  115  118 1   
   118  115  126 1   
   119  116  117 2   
   120  116  134 1   
   121  118  119 1   
   122  118  127 1   
   123  118  128 1   
   124  119  120 ar  
   125  119  121 ar  
   126  120  122 ar  
   127  120  129 1   
   128  121  123 ar  
   129  121  130 1   
   130  122  124 ar  
   131  122  131 1   
   132  123  124 ar  
   133  123  132 1   
   134  124  133 1   
   135  134  135 1   
   136  134  140 1   
   137  135  136 1   
   138  135  138 1   
   139  135  141 1   
   140  136  137 2   
   141  136  148 1   
   142  138  139 1   
   143  138  142 1   
   144  138  143 1   
   145  139  140 1   
   146  139  144 1   
   147  139  145 1   
   148  140  146 1   
   149  140  147 1   
   150  148  149 1   
   151  148  157 1   
   152  149  150 1   
   153  149  152 1   
   154  149  158 1   
   155  150  151 2   
   156  150  163 1   
   157  152  153 1   
   158  152  159 1   
   159  152  160 1   
   160  153  154 1   
   161  153  161 1   
   162  153  162 1   
   163  154  155 1   
   164  154  156 1   
   165  163  164 1   
   166  163  168 1   
   167  164  165 1   
   168  164  166 1   
   169  164  167 1   
   170  170  171 1   
   171  170  172 1   
   172  173  174 1   
   173  173  175 1   
   174  176  177 1   
   175  176  178 1   
   176  179  180 1   
   177  179  181 1   
@<TRIPOS>SUBSTRUCTURE
     1 MOL         1 TEMP              0 ****  ****    0 ROOT
