@<TRIPOS>MOLECULE
MOL
  195   189     1     0     0
SMALL
resp


@<TRIPOS>ATOM
      1 C1          1.4990    7.8760   -2.5960 c3        1 MOL     -0.336434
      2 C2          1.6690    6.3040   -2.2760 c         1 MOL      0.714667
      3 O1          1.3450    5.5000   -3.1060 o         1 MOL     -0.568209
      4 H1          1.7810    8.0690   -3.6320 hc        1 MOL      0.079310
      5 H2          0.4600    8.1690   -2.4430 hc        1 MOL      0.079310
      6 H3          2.1410    8.4550   -1.9320 hc        1 MOL      0.079310
      7 N1          2.1160    5.9650   -1.0500 n         1 MOL     -0.664960
      8 C3          2.3670    4.5560   -0.5660 c3        1 MOL      0.244654
      9 C4          1.1990    3.8860    0.1740 c         1 MOL      0.307156
     10 O2          1.3000    2.8390    0.8350 o         1 MOL     -0.488370
     11 C5          3.6550    4.3430    0.2330 c3        1 MOL     -0.321981
     12 C6          3.9350    5.2710    1.3900 c         1 MOL      0.732975
     13 O3          3.4210    6.4080    1.3270 o         1 MOL     -0.738789
     14 O4          4.8270    4.9440    2.1650 o         1 MOL     -0.738789
     15 H4          2.6730    6.6630   -0.5920 hn        1 MOL      0.353642
     16 H5          2.6010    3.9990   -1.4670 h1        1 MOL      0.047767
     17 H6          4.4530    4.5870   -0.4720 hc        1 MOL      0.096738
     18 H7          3.7500    3.3210    0.6030 hc        1 MOL      0.096738
     19 N2         -0.0070    4.5230    0.2000 n         1 MOL     -0.283235
     20 C7         -1.2730    3.8450    0.7000 c3        1 MOL      0.174395
     21 C8         -2.1610    3.3690   -0.4820 c         1 MOL      0.656674
     22 O5         -2.0800    4.0510   -1.5200 o         1 MOL     -0.592960
     23 C9         -2.0390    4.7840    1.6050 c3        1 MOL     -0.123180
     24 C10        -1.2570    5.2390    2.7830 c3        1 MOL     -0.237830
     25 C11        -2.0650    6.3770    3.4580 c3        1 MOL      0.142488
     26 C12        -1.2660    6.9870    4.5840 c3        1 MOL     -0.032206
     27 N3         -0.9800    6.2410    5.8360 n4        1 MOL     -0.371764
     28 H8         -0.0450    5.3920   -0.3130 hn        1 MOL      0.235615
     29 H9         -1.1680    2.9220    1.2600 h1        1 MOL      0.013615
     30 H10        -2.9900    4.3060    1.8840 hc        1 MOL      0.040209
     31 H11        -2.2410    5.7010    1.0430 hc        1 MOL      0.040209
     32 H12        -0.4510    5.8930    2.4560 hc        1 MOL      0.100171
     33 H13        -1.1070    4.4530    3.5130 hc        1 MOL      0.100171
     34 H14        -3.0230    6.0340    3.8460 hc        1 MOL      0.010818
     35 H15        -2.2930    7.1910    2.7690 hc        1 MOL      0.010818
     36 H16        -1.8350    7.8850    4.8440 hx        1 MOL      0.087654
     37 H17        -0.3460    7.3550    4.1320 hx        1 MOL      0.087654
     38 H18        -0.3790    6.8610    6.3630 hn        1 MOL      0.332994
     39 H19        -1.7800    6.0160    6.4000 hn        1 MOL      0.332994
     40 H20        -0.4870    5.3640    5.6800 hn        1 MOL      0.332994
     41 N4         -2.9370    2.3260   -0.3260 n         1 MOL     -0.676715
     42 C13        -2.9160    1.2410    0.7040 c3        1 MOL      0.153040
     43 C14        -3.4240    1.6550    2.1760 c         1 MOL      0.448246
     44 O6         -2.6290    1.4660    3.0890 o         1 MOL     -0.579743
     45 C15        -1.7540    0.2150    0.6020 c3        1 MOL      0.160799
     46 C16        -1.4750   -0.3910   -0.7780 c         1 MOL      0.637161
     47 O7         -1.9260    0.1830   -1.8140 o         1 MOL     -0.705277
     48 O8         -0.7240   -1.4120   -0.8630 o         1 MOL     -0.705277
     49 H21        -3.3290    2.0560   -1.2090 hn        1 MOL      0.343420
     50 H22        -3.7150    0.5610    0.4370 h1        1 MOL      0.060688
     51 H23        -1.9800   -0.5800    1.3130 hc        1 MOL     -0.036634
     52 H24        -0.7920    0.6040    0.9480 hc        1 MOL     -0.036634
     53 N5         -4.6460    2.1300    2.3180 n         1 MOL     -0.249695
     54 C17        -5.6960    2.2540    1.2790 c3        1 MOL     -0.031869
     55 C18        -7.1120    2.1250    1.7720 c         1 MOL      0.429994
     56 O9         -7.3300    1.7370    2.9620 o         1 MOL     -0.534399
     57 H25        -4.9580    2.1920    3.2730 hn        1 MOL      0.230796
     58 H26        -5.5960    1.3660    0.6510 h1        1 MOL      0.063054
     59 H27        -5.5310    3.1600    0.6960 h1        1 MOL      0.063054
     60 N6         -8.1390    2.1950    0.8770 n         1 MOL     -0.346693
     61 C19        -8.0870    2.4670   -0.5980 c3        1 MOL     -0.034315
     62 C20        -7.4610    1.2770   -1.3550 c         1 MOL      0.399391
     63 O10        -6.5130    1.4770   -2.1770 o         1 MOL     -0.514827
     64 C21        -9.4210    2.8280   -1.2610 c3        1 MOL     -0.152168
     65 C22       -10.5540    1.8730   -0.8900 c         1 MOL      0.686957
     66 O11       -11.2360    1.3600   -1.8170 o         1 MOL     -0.695906
     67 O12       -10.9020    1.8310    0.3260 o         1 MOL     -0.695906
     68 H28        -9.0340    2.1740    1.3380 hn        1 MOL      0.262725
     69 H29        -7.5110    3.3630   -0.8320 h1        1 MOL      0.082618
     70 H30        -9.3250    2.8370   -2.3450 hc        1 MOL      0.053092
     71 H31        -9.7040    3.8190   -0.9040 hc        1 MOL      0.053092
     72 N7         -7.6520    0.0150   -0.9560 n         1 MOL     -0.277009
     73 C23        -6.8320   -1.1380   -1.3090 c3        1 MOL     -0.032748
     74 C24        -5.9710   -1.8300   -0.2590 c         1 MOL      0.570898
     75 O13        -5.6500   -1.3470    0.8560 o         1 MOL     -0.509230
     76 H32        -8.5310   -0.2140   -0.5210 hn        1 MOL      0.252420
     77 H33        -6.1680   -0.9310   -2.1470 h1        1 MOL      0.074040
     78 H34        -7.5550   -1.8610   -1.6770 h1        1 MOL      0.074040
     79 N8         -5.6150   -3.1320   -0.5030 n         1 MOL     -0.361658
     80 C25        -4.9380   -3.9910    0.4240 c3        1 MOL     -0.393823
     81 C26        -3.4110   -3.7420    0.5220 c         1 MOL      0.701669
     82 O14        -2.8460   -3.2870   -0.4480 o         1 MOL     -0.549040
     83 C27        -5.1930   -5.4550    0.0220 c3        1 MOL      0.475130
     84 C28        -4.6530   -5.6860   -1.4170 c3        1 MOL     -0.307521
     85 O15        -6.5470   -5.5870   -0.0990 oh        1 MOL     -0.556619
     86 H35        -5.8960   -3.5530   -1.3810 hn        1 MOL      0.242913
     87 H36        -5.4410   -3.6970    1.3450 h1        1 MOL      0.168346
     88 H37        -4.7910   -6.1880    0.7180 h1        1 MOL     -0.014327
     89 H38        -6.8100   -5.5230    0.8320 ho        1 MOL      0.360690
     90 H39        -4.5880   -6.7640   -1.6200 hc        1 MOL      0.074162
     91 H40        -5.1790   -5.1050   -2.1690 hc        1 MOL      0.074162
     92 H41        -3.5940   -5.4220   -1.3990 hc        1 MOL      0.074162
     93 N9         -2.7760   -4.0460    1.7260 n         1 MOL     -0.461438
     94 C29        -1.3760   -3.9180    2.0160 c3        1 MOL      0.062674
     95 C30        -0.4960   -5.0780    1.4800 c         1 MOL      0.562190
     96 O16        -0.7240   -6.2080    1.6820 o         1 MOL     -0.532508
     97 C31        -1.1230   -3.4860    3.4690 c3        1 MOL      0.163807
     98 C32         0.3760   -3.3580    3.8100 c3        1 MOL     -0.039485
     99 C33        -1.8830   -4.4390    4.4690 c3        1 MOL     -0.401541
    100 C34         0.4310   -2.6790    5.1800 c3        1 MOL     -0.255777
    101 H42        -3.3450   -4.2850    2.5230 hn        1 MOL      0.234319
    102 H43        -1.0750   -3.0720    1.3910 h1        1 MOL     -0.102077
    103 H44        -1.6020   -2.5110    3.5840 hc        1 MOL      0.062099
    104 H45         1.0440   -2.8720    3.0990 hc        1 MOL      0.020802
    105 H46         0.6490   -4.4160    3.8510 hc        1 MOL      0.020802
    106 H47        -2.9520   -4.4940    4.2340 hc        1 MOL      0.113263
    107 H48        -1.4750   -5.4430    4.4370 hc        1 MOL      0.113263
    108 H49        -1.7090   -3.9980    5.4490 hc        1 MOL      0.113263
    109 H50         0.4890   -3.4150    5.9830 hc        1 MOL      0.070055
    110 H51         1.4010   -2.1760    5.1720 hc        1 MOL      0.070055
    111 H52        -0.4110   -2.0260    5.3830 hc        1 MOL      0.070055
    112 N10         0.6150   -4.6930    0.8310 n         1 MOL     -0.268833
    113 C35         1.7190   -5.6370    0.5940 c3        1 MOL     -0.324377
    114 C36         3.0480   -5.2000    1.1240 c         1 MOL      0.304109
    115 O17         3.9440   -6.0530    1.2800 o         1 MOL     -0.474730
    116 C37         1.8840   -5.9280   -0.8930 c3        1 MOL      0.347173
    117 C38         2.2860   -4.7590   -1.7510 c3        1 MOL     -0.353494
    118 O18         0.6110   -6.4380   -1.3520 oh        1 MOL     -0.642397
    119 H53         0.7780   -3.7480    0.5210 hn        1 MOL      0.307959
    120 H54         1.5010   -6.5410    1.1660 h1        1 MOL      0.212523
    121 H55         2.6010   -6.7370   -1.0400 h1        1 MOL      0.092415
    122 H56        -0.0650   -5.8030   -1.0800 ho        1 MOL      0.401315
    123 H57         2.1970   -4.9680   -2.8220 hc        1 MOL      0.103559
    124 H58         1.7220   -3.8780   -1.4290 hc        1 MOL      0.103559
    125 H59         3.3060   -4.4660   -1.4940 hc        1 MOL      0.103559
    126 N11         3.1610   -3.9080    1.4850 n         1 MOL     -0.157432
    127 C39         4.3610   -3.1140    1.7980 c3        1 MOL      0.083867
    128 C40         5.3860   -3.0500    0.6000 c         1 MOL      0.279799
    129 O19         5.3830   -3.9040   -0.3490 o         1 MOL     -0.423180
    130 C41         5.0200   -3.5370    3.1560 c3        1 MOL      0.403065
    131 C42         4.0690   -3.5460    4.3260 c3        1 MOL     -0.411761
    132 O20         6.1460   -2.6560    3.4840 oh        1 MOL     -0.678433
    133 H60         2.3240   -3.3700    1.3390 hn        1 MOL      0.210516
    134 H61         3.9780   -2.0960    1.8850 h1        1 MOL      0.023191
    135 H62         5.4360   -4.5310    2.9900 h1        1 MOL      0.014659
    136 H63         6.9330   -3.1610    3.3080 ho        1 MOL      0.392368
    137 H64         3.1430   -4.0060    3.9780 hc        1 MOL      0.111732
    138 H65         4.3220   -4.2360    5.1390 hc        1 MOL      0.111732
    139 H66         3.8280   -2.5840    4.7830 hc        1 MOL      0.111732
    140 N12         6.2690   -1.9540    0.6190 n         1 MOL     -0.317368
    141 C43         7.3820   -1.7170   -0.3850 c3        1 MOL      0.055422
    142 C44         7.0510   -0.7800   -1.5730 c         1 MOL      0.564088
    143 O21         7.6730   -0.8050   -2.6040 o         1 MOL     -0.550867
    144 C45         8.6130   -1.1540    0.3740 c3        1 MOL     -0.173412
    145 C46         8.4300    0.2880    0.7420 c3        1 MOL      0.316048
    146 C47         9.4910    0.7890    1.7780 c3        1 MOL     -0.487684
    147 C48         9.3850    2.2780    2.1180 c3        1 MOL     -0.041398
    148 N13         8.2750    2.5260    3.0730 n4        1 MOL     -0.353594
    149 H67         6.1770   -1.4080    1.4650 hn        1 MOL      0.253829
    150 H68         7.6910   -2.6080   -0.9170 h1        1 MOL      0.108700
    151 H69         9.4630   -1.2530   -0.2980 hc        1 MOL      0.051941
    152 H70         8.6580   -1.7860    1.2570 hc        1 MOL      0.051941
    153 H71         7.4730    0.5680    1.1980 hc        1 MOL     -0.026409
    154 H72         8.5500    0.9410   -0.1170 hc        1 MOL     -0.026409
    155 H73        10.4240    0.6190    1.2450 hc        1 MOL      0.148721
    156 H74         9.3920    0.1540    2.6570 hc        1 MOL      0.148721
    157 H75         9.1850    2.8790    1.2300 hx        1 MOL      0.161398
    158 H76        10.3410    2.6480    2.4970 hx        1 MOL      0.161398
    159 H77         8.1090    3.4250    3.4970 hn        1 MOL      0.328528
    160 H78         7.4000    2.2840    2.6360 hn        1 MOL      0.328528
    161 H79         8.4780    1.8890    3.8260 hn        1 MOL      0.328528
    162 N14         5.9870    0.0490   -1.4090 n         1 MOL     -0.352491
    163 C49         5.3180    0.7910   -2.4990 c3        1 MOL     -0.200116
    164 C50         6.0330    2.1160   -2.6720 c         1 MOL      0.436137
    165 O22         5.9720    2.9800   -1.8280 o         1 MOL     -0.530662
    166 C51         3.8070    0.9690   -2.3160 c3        1 MOL      0.358289
    167 C52         3.0290   -0.2420   -1.9650 c3        1 MOL     -0.334139
    168 C53         2.8430   -1.1180   -3.2270 c         1 MOL      0.767141
    169 O23         1.6730   -1.4080   -3.5600 o         1 MOL     -0.743544
    170 O24         3.7600   -1.4100   -3.9540 o         1 MOL     -0.743544
    171 H80         5.5420    0.0200   -0.5020 hn        1 MOL      0.213079
    172 H81         5.3980    0.2520   -3.4380 h1        1 MOL      0.221243
    173 H82         3.3860    1.3460   -3.2520 hc        1 MOL     -0.049250
    174 H83         3.6290    1.6460   -1.4920 hc        1 MOL     -0.049250
    175 H84         2.0460   -0.1160   -1.5010 hc        1 MOL      0.027000
    176 H85         3.4890   -0.8740   -1.2040 hc        1 MOL      0.027000
    177 N15         6.7670    2.2670   -3.7790 n         1 MOL     -0.227104
    178 C54         7.5400    3.4750   -4.0380 c3        1 MOL     -0.248102
    179 H86         7.7210    3.5660   -5.1090 h1        1 MOL      0.110698
    180 H87         6.9840    4.3450   -3.6890 h1        1 MOL      0.110698
    181 H88         8.4920    3.4160   -3.5120 h1        1 MOL      0.110698
    182 H89         6.8200    1.5830   -4.5220 hn        1 MOL      0.236680
    183 Ca1        -0.8050   -1.3300   -3.6190 Ca        1 MOL      1.722877
    184 O25        -2.7940   -0.5730   -5.5010 oh        1 MOL     -0.883512
    185 H90        -3.7100   -0.3310   -5.3720 ho        1 MOL      0.433285
    186 H91        -2.4140    0.1570   -5.9880 ho        1 MOL      0.433285
    187 O26        -0.4130   -3.9220   -3.3780 oh        1 MOL     -0.883512
    188 H92         0.3130   -4.2310   -3.9080 ho        1 MOL      0.433285
    189 H93        -0.9260   -4.7100   -3.1850 ho        1 MOL      0.433285
    190 O27        -0.2530    1.3350   -4.2290 oh        1 MOL     -0.883512
    191 H94         0.1970    1.5180   -5.0530 ho        1 MOL      0.433285
    192 H95        -0.5350    2.2010   -3.9140 ho        1 MOL      0.433285
    193 O28        -3.2640   -2.2070   -2.8200 oh        1 MOL     -0.883512
    194 H96        -4.0300   -2.6300   -3.2070 ho        1 MOL      0.433285
    195 H97        -3.0820   -2.7060   -2.0250 ho        1 MOL      0.433285
@<TRIPOS>BOND
     1    1    2 1   
     2    1    4 1   
     3    1    5 1   
     4    1    6 1   
     5    2    3 2   
     6    2    7 1   
     7    7    8 1   
     8    7   15 1   
     9    8    9 1   
    10    8   11 1   
    11    8   16 1   
    12    9   10 2   
    13    9   19 1   
    14   11   12 1   
    15   11   17 1   
    16   11   18 1   
    17   12   13 1   
    18   12   14 1   
    19   19   20 1   
    20   19   28 1   
    21   20   21 1   
    22   20   23 1   
    23   20   29 1   
    24   21   22 2   
    25   21   41 1   
    26   23   24 1   
    27   23   30 1   
    28   23   31 1   
    29   24   25 1   
    30   24   32 1   
    31   24   33 1   
    32   25   26 1   
    33   25   34 1   
    34   25   35 1   
    35   26   27 1   
    36   26   36 1   
    37   26   37 1   
    38   27   38 1   
    39   27   39 1   
    40   27   40 1   
    41   41   42 1   
    42   41   49 1   
    43   42   43 1   
    44   42   45 1   
    45   42   50 1   
    46   43   44 2   
    47   43   53 1   
    48   45   46 1   
    49   45   51 1   
    50   45   52 1   
    51   46   47 1   
    52   46   48 1   
    53   53   54 1   
    54   53   57 1   
    55   54   55 1   
    56   54   58 1   
    57   54   59 1   
    58   55   56 2   
    59   55   60 1   
    60   60   61 1   
    61   60   68 1   
    62   61   62 1   
    63   61   64 1   
    64   61   69 1   
    65   62   63 2   
    66   62   72 1   
    67   64   65 1   
    68   64   70 1   
    69   64   71 1   
    70   65   66 1   
    71   65   67 1   
    72   72   73 1   
    73   72   76 1   
    74   73   74 1   
    75   73   77 1   
    76   73   78 1   
    77   74   75 2   
    78   74   79 1   
    79   79   80 1   
    80   79   86 1   
    81   80   81 1   
    82   80   83 1   
    83   80   87 1   
    84   81   82 2   
    85   81   93 1   
    86   83   84 1   
    87   83   85 1   
    88   83   88 1   
    89   84   90 1   
    90   84   91 1   
    91   84   92 1   
    92   85   89 1   
    93   93   94 1   
    94   93  101 1   
    95   94   95 1   
    96   94   97 1   
    97   94  102 1   
    98   95   96 2   
    99   95  112 1   
   100   97   98 1   
   101   97   99 1   
   102   97  103 1   
   103   98  100 1   
   104   98  104 1   
   105   98  105 1   
   106   99  106 1   
   107   99  107 1   
   108   99  108 1   
   109  100  109 1   
   110  100  110 1   
   111  100  111 1   
   112  112  113 1   
   113  112  119 1   
   114  113  114 1   
   115  113  116 1   
   116  113  120 1   
   117  114  115 2   
   118  114  126 1   
   119  116  117 1   
   120  116  118 1   
   121  116  121 1   
   122  117  123 1   
   123  117  124 1   
   124  117  125 1   
   125  118  122 1   
   126  126  127 1   
   127  126  133 1   
   128  127  128 1   
   129  127  130 1   
   130  127  134 1   
   131  128  129 2   
   132  128  140 1   
   133  130  131 1   
   134  130  132 1   
   135  130  135 1   
   136  131  137 1   
   137  131  138 1   
   138  131  139 1   
   139  132  136 1   
   140  140  141 1   
   141  140  149 1   
   142  141  142 1   
   143  141  144 1   
   144  141  150 1   
   145  142  143 2   
   146  142  162 1   
   147  144  145 1   
   148  144  151 1   
   149  144  152 1   
   150  145  146 1   
   151  145  153 1   
   152  145  154 1   
   153  146  147 1   
   154  146  155 1   
   155  146  156 1   
   156  147  148 1   
   157  147  157 1   
   158  147  158 1   
   159  148  159 1   
   160  148  160 1   
   161  148  161 1   
   162  162  163 1   
   163  162  171 1   
   164  163  164 1   
   165  163  166 1   
   166  163  172 1   
   167  164  165 2   
   168  164  177 1   
   169  166  167 1   
   170  166  173 1   
   171  166  174 1   
   172  167  168 1   
   173  167  175 1   
   174  167  176 1   
   175  168  169 1   
   176  168  170 1   
   177  177  178 1   
   178  177  182 1   
   179  178  179 1   
   180  178  180 1   
   181  178  181 1   
   182  184  185 1   
   183  184  186 1   
   184  187  188 1   
   185  187  189 1   
   186  190  191 1   
   187  190  192 1   
   188  193  194 1   
   189  193  195 1   
@<TRIPOS>SUBSTRUCTURE
     1 MOL         1 TEMP              0 ****  ****    0 ROOT
