@<TRIPOS>MOLECULE
MOL
  201   193     1     0     0
SMALL
resp


@<TRIPOS>ATOM
      1 C1         -9.9070   -6.6510   -3.9720 c3        1 MOL     -0.388112
      2 C2        -10.0770   -5.7670   -2.7370 c         1 MOL      0.709198
      3 O1        -11.2210   -5.4190   -2.3450 o         1 MOL     -0.600904
      4 H1        -10.8740   -6.7940   -4.4510 hc        1 MOL      0.104709
      5 H2         -9.2220   -6.1700   -4.6710 hc        1 MOL      0.104709
      6 H3         -9.5030   -7.6190   -3.6740 hc        1 MOL      0.104709
      7 N1         -8.9810   -5.3740   -2.0710 n         1 MOL     -0.677290
      8 C3         -8.8620   -4.5070   -0.9690 c3        1 MOL      0.353887
      9 C4         -8.0460   -3.2990   -1.4360 c         1 MOL      0.566048
     10 O2         -7.4230   -3.2460   -2.5070 o         1 MOL     -0.542947
     11 C5         -8.3010   -5.2470    0.2430 c3        1 MOL     -0.209914
     12 C6         -7.1030   -5.9890   -0.1850 c         1 MOL      0.744013
     13 O3         -5.9400   -5.5590   -0.0650 o         1 MOL     -0.609569
     14 O4         -7.2120   -7.1990   -0.4720 o         1 MOL     -0.609569
     15 H4         -8.1320   -5.8710   -2.3060 hn        1 MOL      0.309981
     16 H5         -9.8390   -4.0620   -0.7560 h1        1 MOL     -0.013513
     17 H6         -9.0740   -5.8840    0.6820 hc        1 MOL      0.038046
     18 H7         -8.1430   -4.5580    1.0800 hc        1 MOL      0.038046
     19 N2         -7.9990   -2.2880   -0.6070 n         1 MOL     -0.543186
     20 C7         -7.2070   -1.0310   -0.7210 c3        1 MOL      0.119139
     21 C8         -5.7630   -1.2840   -0.2370 c         1 MOL      0.646503
     22 O5         -5.4880   -2.1480    0.5780 o         1 MOL     -0.528030
     23 C9         -7.8630    0.1500   -0.0760 c3        1 MOL     -0.194211
     24 C10        -8.0220    0.1440    1.4920 c3        1 MOL      0.022441
     25 C11        -8.7100    1.3800    2.0720 c3        1 MOL      0.026901
     26 C12        -8.4530    1.3660    3.6130 c3        1 MOL      0.102226
     27 N3         -9.2640    2.2900    4.3520 n4        1 MOL     -0.429172
     28 H8         -8.2900   -2.5550    0.3150 hn        1 MOL      0.212249
     29 H9         -7.2230   -0.8460   -1.7990 h1        1 MOL      0.086932
     30 H10        -8.8750    0.1620   -0.4800 hc        1 MOL      0.067851
     31 H11        -7.3980    1.0200   -0.5430 hc        1 MOL      0.067851
     32 H12        -7.0270    0.0980    1.9390 hc        1 MOL      0.028185
     33 H13        -8.5630   -0.7490    1.8010 hc        1 MOL      0.028185
     34 H14        -9.7520    1.1900    1.8130 hc        1 MOL      0.014611
     35 H15        -8.3130    2.2770    1.6060 hc        1 MOL      0.014611
     36 H16        -7.3710    1.4730    3.6710 hx        1 MOL      0.057005
     37 H17        -8.6560    0.3490    3.9510 hx        1 MOL      0.057005
     38 H18        -8.9130    2.0950    5.2770 hn        1 MOL      0.318140
     39 H19        -9.0980    3.2370    4.0450 hn        1 MOL      0.318140
     40 H20       -10.2380    2.0400    4.3970 hn        1 MOL      0.318140
     41 N4         -4.7820   -0.4620   -0.6860 n         1 MOL     -0.662697
     42 C13        -3.4840   -0.2920   -0.0890 c3        1 MOL      0.430477
     43 C14        -2.8700    1.0900   -0.5150 c         1 MOL      0.188912
     44 O6         -2.9460    1.5330   -1.6820 o         1 MOL     -0.517302
     45 C15        -2.4580   -1.3560   -0.5650 c3        1 MOL     -0.281092
     46 C16        -1.3530   -1.4970    0.4920 c         1 MOL      0.738636
     47 O7         -1.4980   -1.1530    1.6690 o         1 MOL     -0.760047
     48 O8         -0.2330   -2.0070    0.1860 o         1 MOL     -0.760047
     49 H21        -5.0830    0.2400   -1.3490 hn        1 MOL      0.283420
     50 H22        -3.6270   -0.3480    0.9950 h1        1 MOL      0.014918
     51 H23        -2.0680   -1.1020   -1.5510 hc        1 MOL      0.109657
     52 H24        -3.0560   -2.2510   -0.7070 hc        1 MOL      0.109657
     53 N5         -2.3010    1.8960    0.3460 n         1 MOL     -0.070188
     54 C17        -2.2230    1.8660    1.7230 c3        1 MOL     -0.137044
     55 C18        -2.0580    3.2890    2.3050 c         1 MOL      0.504640
     56 O9         -2.6650    4.2130    1.8170 o         1 MOL     -0.553273
     57 H25        -1.9570    2.6870   -0.1670 hn        1 MOL      0.197116
     58 H26        -1.3330    1.2750    1.9450 h1        1 MOL      0.066689
     59 H27        -3.1080    1.4690    2.2200 h1        1 MOL      0.066689
     60 N6         -1.1430    3.4690    3.2810 n         1 MOL     -0.312452
     61 C19        -0.6800    4.7860    3.7600 c3        1 MOL     -0.005226
     62 C20        -0.2050    5.7010    2.6360 c         1 MOL      0.504139
     63 O10         0.7490    5.4700    1.9430 o         1 MOL     -0.438315
     64 C21         0.5030    4.6460    4.7690 c3        1 MOL     -0.211364
     65 C22         1.5200    3.5670    4.5220 c         1 MOL      0.783356
     66 O11         1.1760    2.4010    4.6560 o         1 MOL     -0.705767
     67 O12         2.6820    3.8970    4.3190 o         1 MOL     -0.705767
     68 H28        -0.6120    2.6460    3.5270 hn        1 MOL      0.173185
     69 H29        -1.5130    5.2610    4.2770 h1        1 MOL      0.057048
     70 H30        -0.0250    4.4460    5.7050 hc        1 MOL      0.054485
     71 H31         1.0210    5.5980    4.8210 hc        1 MOL      0.054485
     72 N7         -0.6760    6.9440    2.5240 n         1 MOL     -0.423102
     73 C23        -0.2260    7.9840    1.5510 c3        1 MOL     -0.022426
     74 C24        -0.2510    7.6860    0.0460 c         1 MOL      0.520905
     75 O13         0.3670    8.4900   -0.6240 o         1 MOL     -0.556652
     76 H32        -1.4700    7.2210    3.0910 hn        1 MOL      0.255766
     77 H33         0.7350    8.4280    1.8040 h1        1 MOL      0.089542
     78 H34        -0.8250    8.8880    1.6300 h1        1 MOL      0.089542
     79 N8         -0.9740    6.6860   -0.5090 n         1 MOL     -0.452722
     80 C25        -1.0480    6.3460   -1.9830 c3        1 MOL     -0.010213
     81 C26        -1.0520    4.8290   -2.0890 c         1 MOL      0.649450
     82 O14        -1.8030    4.1850   -1.4080 o         1 MOL     -0.426783
     83 C27        -2.2450    7.1550   -2.6570 c3        1 MOL      0.294142
     84 C28        -2.2600    7.1210   -4.1710 c3        1 MOL     -0.197781
     85 O15        -3.4440    6.6970   -2.0980 oh        1 MOL     -0.616164
     86 H35        -1.3190    6.0650    0.1990 hn        1 MOL      0.260391
     87 H36        -0.1630    6.7320   -2.4890 h1        1 MOL      0.063783
     88 H37        -2.2040    8.2240   -2.4420 h1        1 MOL      0.028706
     89 H38        -4.1180    7.3400   -2.3340 ho        1 MOL      0.390500
     90 H39        -3.1550    7.5720   -4.6000 hc        1 MOL      0.042245
     91 H40        -1.4350    7.7500   -4.5240 hc        1 MOL      0.042245
     92 H41        -2.1860    6.1080   -4.5560 hc        1 MOL      0.042245
     93 N9         -0.2260    4.2300   -2.9340 n         1 MOL     -0.585437
     94 C29        -0.1450    2.7650   -3.1390 c3        1 MOL      0.094117
     95 C30         0.8790    2.1370   -2.1340 c         1 MOL      0.455967
     96 O16         0.5780    1.1400   -1.4720 o         1 MOL     -0.428080
     97 C31         0.2370    2.4720   -4.6180 c3        1 MOL      0.081286
     98 C32        -0.4590    3.3660   -5.6780 c3        1 MOL     -0.039782
     99 C33         0.0620    0.9590   -4.9130 c3        1 MOL     -0.243873
    100 C34        -1.9970    3.3720   -5.7040 c3        1 MOL     -0.204889
    101 H42         0.4330    4.7980   -3.4530 hn        1 MOL      0.316701
    102 H43        -1.1400    2.3370   -2.9570 h1        1 MOL      0.109356
    103 H44         1.3080    2.6820   -4.5510 hc        1 MOL     -0.045377
    104 H45        -0.1400    3.0480   -6.6690 hc        1 MOL      0.019609
    105 H46        -0.1420    4.3900   -5.4840 hc        1 MOL      0.019609
    106 H47         0.4810    0.6900   -5.8770 hc        1 MOL      0.071511
    107 H48         0.3490    0.2890   -4.1000 hc        1 MOL      0.071511
    108 H49        -1.0200    0.8440   -5.0180 hc        1 MOL      0.071511
    109 H50        -2.2820    4.1180   -6.4540 hc        1 MOL      0.068871
    110 H51        -2.3700    2.3900   -5.9800 hc        1 MOL      0.068871
    111 H52        -2.4140    3.6350   -4.7320 hc        1 MOL      0.068871
    112 N10         2.1030    2.7160   -1.9730 n         1 MOL     -0.416668
    113 C35         3.1790    2.3900   -0.9570 c3        1 MOL      0.116392
    114 C36         4.5730    2.5410   -1.4400 c         1 MOL      0.604557
    115 O17         4.6650    3.3310   -2.4430 o         1 MOL     -0.553988
    116 C37         2.9840    3.1480    0.4190 c3        1 MOL      0.118510
    117 C38         3.3460    4.6350    0.3620 c3        1 MOL     -0.405729
    118 O18         1.6400    3.0440    0.8870 oh        1 MOL     -0.565981
    119 H53         2.3190    3.5110   -2.5540 hn        1 MOL      0.269704
    120 H54         3.0290    1.3340   -0.7180 h1        1 MOL     -0.003182
    121 H55         3.6510    2.6490    1.1240 h1        1 MOL      0.084323
    122 H56         1.4180    3.8280    1.3890 ho        1 MOL      0.419291
    123 H57         4.2790    4.7960   -0.1850 hc        1 MOL      0.117941
    124 H58         2.5680    5.1930   -0.1560 hc        1 MOL      0.117941
    125 H59         3.3190    4.9860    1.3930 hc        1 MOL      0.117941
    126 N11         5.5350    1.9070   -0.8350 n         1 MOL     -0.586049
    127 C39         6.8040    1.6050   -1.5540 c3        1 MOL      0.185601
    128 C40         6.9460    0.1780   -1.9970 c         1 MOL      0.572894
    129 O19         7.0900   -0.0550   -3.2290 o         1 MOL     -0.566223
    130 C41         8.0330    2.2240   -0.8430 c3        1 MOL      0.318076
    131 C42         9.4070    1.6140   -1.1690 c3        1 MOL     -0.333686
    132 O20         8.0230    1.9330    0.5540 oh        1 MOL     -0.667665
    133 H60         5.2000    1.3070   -0.0990 hn        1 MOL      0.303216
    134 H61         6.8340    2.1230   -2.5140 h1        1 MOL      0.033036
    135 H62         8.0050    3.3100   -0.9680 h1        1 MOL      0.028320
    136 H63         8.6280    2.4640    1.0690 ho        1 MOL      0.421168
    137 H64        10.1430    2.2160   -0.6430 hc        1 MOL      0.075303
    138 H65         9.3370    0.5940   -0.7760 hc        1 MOL      0.075303
    139 H66         9.5500    1.7450   -2.2430 hc        1 MOL      0.075303
    140 N12         6.8660   -0.7500   -1.0590 n         1 MOL     -0.457601
    141 C43         6.9040   -2.2000   -1.2930 c3        1 MOL      0.100198
    142 C44         5.8370   -2.8290   -0.4200 c         1 MOL      0.489273
    143 O21         5.5060   -2.2860    0.6540 o         1 MOL     -0.491361
    144 C45         8.3540   -2.6510   -0.8700 c3        1 MOL     -0.199769
    145 C46         8.5980   -4.1990   -0.9360 c3        1 MOL     -0.124196
    146 C47        10.1150   -4.4890   -0.6880 c3        1 MOL      0.109452
    147 C48        10.6430   -5.8940   -1.0590 c3        1 MOL     -0.008246
    148 N13        12.1000   -6.0290   -0.9190 n4        1 MOL     -0.080294
    149 H67         6.8280   -0.4650   -0.0930 hn        1 MOL      0.289276
    150 H68         6.7240   -2.4720   -2.3350 h1        1 MOL      0.092573
    151 H69         8.5620   -2.3400    0.1570 hc        1 MOL      0.092662
    152 H70         9.0720   -2.0940   -1.4670 hc        1 MOL      0.092662
    153 H71         8.2790   -4.5380   -1.9150 hc        1 MOL      0.075202
    154 H72         8.1020   -4.7450   -0.1370 hc        1 MOL      0.075202
    155 H73        10.4060   -4.3100    0.3520 hc        1 MOL     -0.002678
    156 H74        10.6830   -3.8110   -1.3160 hc        1 MOL     -0.002678
    157 H75        10.4320   -6.1350   -2.0930 hx        1 MOL      0.069187
    158 H76        10.1330   -6.5920   -0.3970 hx        1 MOL      0.069187
    159 H77        12.3430   -6.0070    0.0690 hn        1 MOL      0.197523
    160 H78        12.4260   -6.9140   -1.2670 hn        1 MOL      0.197523
    161 H79        12.6920   -5.2890   -1.2890 hn        1 MOL      0.197523
    162 N14         5.2310   -3.8860   -0.8430 n         1 MOL     -0.609694
    163 C49         4.1880   -4.5470   -0.1100 c3        1 MOL      0.263025
    164 C50         2.8880   -3.6510   -0.0310 c         1 MOL      0.189459
    165 O22         2.4710   -3.3550    1.0880 o         1 MOL     -0.503683
    166 C51         3.9930   -5.9030   -0.6940 c3        1 MOL      0.207227
    167 C52         2.9140   -6.8560    0.0050 c3        1 MOL     -0.404254
    168 C53         3.2170   -6.9350    1.4790 c         1 MOL      0.781821
    169 O23         4.3370   -7.3220    1.9130 o         1 MOL     -0.716007
    170 O24         2.3210   -6.6020    2.2810 o         1 MOL     -0.716007
    171 H80         5.5770   -4.3560   -1.6620 hn        1 MOL      0.289390
    172 H81         4.5090   -4.7990    0.8960 h1        1 MOL      0.094670
    173 H82         4.9150   -6.4710   -0.7680 hc        1 MOL     -0.061879
    174 H83         3.7060   -5.8130   -1.7380 hc        1 MOL     -0.061879
    175 H84         2.9680   -7.8490   -0.4380 hc        1 MOL      0.098289
    176 H85         1.9340   -6.4310   -0.2240 hc        1 MOL      0.098289
    177 N15         2.3070   -3.0200   -1.0220 n         1 MOL     -0.039792
    178 C54         2.1880   -3.3590   -2.4290 c3        1 MOL     -0.055637
    179 H86         1.1360   -3.5010   -2.6810 h1        1 MOL      0.048573
    180 H87         2.5990   -2.5510   -3.0340 h1        1 MOL      0.048573
    181 H88         2.7350   -4.2800   -2.6290 h1        1 MOL      0.048573
    182 H89         1.6260   -2.3400   -0.7350 hn        1 MOL      0.155937
    183 Ca1         1.0570   -1.9020    2.6280 Ca        1 MOL      1.753355
    184 O25         0.8160   -0.1880    4.6810 oh        1 MOL     -0.832819
    185 H90         0.8280   -0.2860    5.6330 ho        1 MOL      0.405696
    186 H91         1.0130    0.7370    4.5320 ho        1 MOL      0.405696
    187 O26        -0.8450   -3.0800    4.3360 oh        1 MOL     -0.832819
    188 H92        -1.5340   -2.6960    4.8710 ho        1 MOL      0.405696
    189 H93        -1.0510   -4.0130    4.3060 ho        1 MOL      0.405696
    190 O27         3.5290   -1.1240    3.1970 oh        1 MOL     -0.832819
    191 H94         4.3310   -1.4870    3.5660 ho        1 MOL      0.405696
    192 H95         3.5590   -0.1910    3.4210 ho        1 MOL      0.405696
    193 O28         2.1840   -3.3640    4.5190 oh        1 MOL     -0.832819
    194 H96         2.4600   -4.2670    4.3700 ho        1 MOL      0.405696
    195 H97         2.2140   -3.2570    5.4650 ho        1 MOL      0.405696
    196 O29         0.5460   -4.7820    2.3770 oh        1 MOL     -0.832819
    197 H98        -0.0950   -5.2690    1.8540 ho        1 MOL      0.405696
    198 H99         1.3320   -5.3290    2.3700 ho        1 MOL      0.405696
    199 O30         1.0120    0.4600    1.2030 oh        1 MOL     -0.832819
    200 H100        1.2730    1.3760    1.2960 ho        1 MOL      0.405696
    201 H101        0.5360    0.4310    0.3650 ho        1 MOL      0.405696
@<TRIPOS>BOND
     1    1    2 1   
     2    1    4 1   
     3    1    5 1   
     4    1    6 1   
     5    2    3 2   
     6    2    7 1   
     7    7    8 1   
     8    7   15 1   
     9    8    9 1   
    10    8   11 1   
    11    8   16 1   
    12    9   10 2   
    13    9   19 1   
    14   11   12 1   
    15   11   17 1   
    16   11   18 1   
    17   12   13 1   
    18   12   14 1   
    19   19   20 1   
    20   19   28 1   
    21   20   21 1   
    22   20   23 1   
    23   20   29 1   
    24   21   22 2   
    25   21   41 1   
    26   23   24 1   
    27   23   30 1   
    28   23   31 1   
    29   24   25 1   
    30   24   32 1   
    31   24   33 1   
    32   25   26 1   
    33   25   34 1   
    34   25   35 1   
    35   26   27 1   
    36   26   36 1   
    37   26   37 1   
    38   27   38 1   
    39   27   39 1   
    40   27   40 1   
    41   41   42 1   
    42   41   49 1   
    43   42   43 1   
    44   42   45 1   
    45   42   50 1   
    46   43   44 2   
    47   43   53 1   
    48   45   46 1   
    49   45   51 1   
    50   45   52 1   
    51   46   47 1   
    52   46   48 1   
    53   53   54 1   
    54   53   57 1   
    55   54   55 1   
    56   54   58 1   
    57   54   59 1   
    58   55   56 2   
    59   55   60 1   
    60   60   61 1   
    61   60   68 1   
    62   61   62 1   
    63   61   64 1   
    64   61   69 1   
    65   62   63 2   
    66   62   72 1   
    67   64   65 1   
    68   64   70 1   
    69   64   71 1   
    70   65   66 1   
    71   65   67 1   
    72   72   73 1   
    73   72   76 1   
    74   73   74 1   
    75   73   77 1   
    76   73   78 1   
    77   74   75 2   
    78   74   79 1   
    79   79   80 1   
    80   79   86 1   
    81   80   81 1   
    82   80   83 1   
    83   80   87 1   
    84   81   82 2   
    85   81   93 1   
    86   83   84 1   
    87   83   85 1   
    88   83   88 1   
    89   84   90 1   
    90   84   91 1   
    91   84   92 1   
    92   85   89 1   
    93   93   94 1   
    94   93  101 1   
    95   94   95 1   
    96   94   97 1   
    97   94  102 1   
    98   95   96 2   
    99   95  112 1   
   100   97   98 1   
   101   97   99 1   
   102   97  103 1   
   103   98  100 1   
   104   98  104 1   
   105   98  105 1   
   106   99  106 1   
   107   99  107 1   
   108   99  108 1   
   109  100  109 1   
   110  100  110 1   
   111  100  111 1   
   112  112  113 1   
   113  112  119 1   
   114  113  114 1   
   115  113  116 1   
   116  113  120 1   
   117  114  115 2   
   118  114  126 1   
   119  116  117 1   
   120  116  118 1   
   121  116  121 1   
   122  117  123 1   
   123  117  124 1   
   124  117  125 1   
   125  118  122 1   
   126  126  127 1   
   127  126  133 1   
   128  127  128 1   
   129  127  130 1   
   130  127  134 1   
   131  128  129 2   
   132  128  140 1   
   133  130  131 1   
   134  130  132 1   
   135  130  135 1   
   136  131  137 1   
   137  131  138 1   
   138  131  139 1   
   139  132  136 1   
   140  140  141 1   
   141  140  149 1   
   142  141  142 1   
   143  141  144 1   
   144  141  150 1   
   145  142  143 2   
   146  142  162 1   
   147  144  145 1   
   148  144  151 1   
   149  144  152 1   
   150  145  146 1   
   151  145  153 1   
   152  145  154 1   
   153  146  147 1   
   154  146  155 1   
   155  146  156 1   
   156  147  148 1   
   157  147  157 1   
   158  147  158 1   
   159  148  159 1   
   160  148  160 1   
   161  148  161 1   
   162  162  163 1   
   163  162  171 1   
   164  163  164 1   
   165  163  166 1   
   166  163  172 1   
   167  164  165 2   
   168  164  177 1   
   169  166  167 1   
   170  166  173 1   
   171  166  174 1   
   172  167  168 1   
   173  167  175 1   
   174  167  176 1   
   175  168  169 1   
   176  168  170 1   
   177  177  178 1   
   178  177  182 1   
   179  178  179 1   
   180  178  180 1   
   181  178  181 1   
   182  184  185 1   
   183  184  186 1   
   184  187  188 1   
   185  187  189 1   
   186  190  191 1   
   187  190  192 1   
   188  193  194 1   
   189  193  195 1   
   190  196  197 1   
   191  196  198 1   
   192  199  200 1   
   193  199  201 1   
@<TRIPOS>SUBSTRUCTURE
     1 MOL         1 TEMP              0 ****  ****    0 ROOT
