@<TRIPOS>MOLECULE
MOL
  175   173     1     0     0
SMALL
resp


@<TRIPOS>ATOM
      1 C1         -7.0080    8.1600    1.8200 c3        1 MOL     -0.428036
      2 C2         -7.8360    7.1780    0.9660 c         1 MOL      0.696946
      3 O1         -8.0320    7.4130   -0.2220 o         1 MOL     -0.576030
      4 H1         -6.7750    7.6980    2.7790 hc        1 MOL      0.100201
      5 H2         -6.0810    8.4030    1.3000 hc        1 MOL      0.100201
      6 H3         -7.5820    9.0720    1.9860 hc        1 MOL      0.100201
      7 N1         -8.3150    6.0580    1.5460 n         1 MOL     -0.608083
      8 C3         -8.9450    4.9990    0.7070 c3        1 MOL      0.354519
      9 C4         -7.9970    4.2550   -0.2250 c         1 MOL      0.369977
     10 O2         -8.3650    3.9140   -1.3860 o         1 MOL     -0.506618
     11 C5         -9.6960    3.9430    1.5240 c3        1 MOL     -0.278976
     12 C6        -10.7590    3.1560    0.6930 c         1 MOL      0.717669
     13 O3        -10.5770    1.9580    0.4030 o         1 MOL     -0.716545
     14 O4        -11.6840    3.7500    0.2300 o         1 MOL     -0.716545
     15 H4         -8.0610    5.9740    2.5200 hn        1 MOL      0.297070
     16 H5         -9.7200    5.5600    0.1910 h1        1 MOL      0.036766
     17 H6        -10.2380    4.4530    2.3200 hc        1 MOL      0.007530
     18 H7         -8.9670    3.2420    1.9460 hc        1 MOL      0.007530
     19 N2         -6.7370    4.0840    0.1610 n         1 MOL     -0.398838
     20 C7         -5.7110    3.5690   -0.7410 c3        1 MOL      0.410324
     21 C8         -4.9530    2.5050    0.1560 c         1 MOL      0.442001
     22 O5         -4.5040    2.8820    1.2450 o         1 MOL     -0.569489
     23 C9         -4.7890    4.6420   -1.2970 c3        1 MOL     -0.486556
     24 H8         -6.4660    4.4700    1.0550 hn        1 MOL      0.230189
     25 H9         -6.2510    3.0950   -1.5660 h1        1 MOL      0.003823
     26 H10        -5.4090    5.4230   -1.7410 hc        1 MOL      0.126590
     27 H11        -4.3090    5.1370   -0.4510 hc        1 MOL      0.126590
     28 H12        -4.0270    4.1970   -1.9310 hc        1 MOL      0.126590
     29 N3         -4.6870    1.2580   -0.2170 n         1 MOL     -0.310718
     30 C10        -5.2640    0.4340   -1.2290 c3        1 MOL     -0.160464
     31 C11        -5.5930   -0.9790   -0.7970 c         1 MOL      0.593776
     32 O6         -4.8580   -1.4470    0.0550 o         1 MOL     -0.542143
     33 C12        -4.3420    0.4530   -2.4900 c3        1 MOL     -0.088729
     34 C13        -2.9040   -0.1480   -2.2170 c         1 MOL      0.652822
     35 O7         -2.0290    0.5070   -1.6560 o         1 MOL     -0.728435
     36 O8         -2.6970   -1.3300   -2.4660 o         1 MOL     -0.728435
     37 H13        -3.9460    0.8990    0.3720 hn        1 MOL      0.271049
     38 H14        -6.1710    0.9760   -1.5080 h1        1 MOL      0.093635
     39 H15        -4.2000    1.4780   -2.8500 hc        1 MOL      0.031229
     40 H16        -4.8500   -0.0800   -3.2940 hc        1 MOL      0.031229
     41 N4         -6.4590   -1.7410   -1.4530 n         1 MOL     -0.446723
     42 C14        -6.8740   -3.0880   -0.8680 c3        1 MOL      0.068137
     43 C15        -6.6180   -4.2130   -1.8900 c         1 MOL      0.452358
     44 O9         -7.5430   -4.8100   -2.4610 o         1 MOL     -0.553172
     45 H17        -7.0020   -1.3880   -2.2350 hn        1 MOL      0.333682
     46 H18        -7.9090   -3.0400   -0.5320 h1        1 MOL      0.055299
     47 H19        -6.3990   -3.2880    0.0920 h1        1 MOL      0.055299
     48 N5         -5.3910   -4.4880   -2.2820 n         1 MOL     -0.452592
     49 C16        -4.1340   -4.1970   -1.6240 c3        1 MOL      0.159609
     50 C17        -4.2100   -4.9750   -0.2660 c         1 MOL      0.427453
     51 O10        -4.3220   -6.2370   -0.3010 o         1 MOL     -0.528849
     52 C18        -2.9790   -4.7340   -2.5350 c3        1 MOL     -0.117375
     53 C19        -1.6380   -4.3120   -2.0000 c         1 MOL      0.664514
     54 N6         -0.5990   -4.6290   -2.6670 n         1 MOL     -0.696913
     55 O11        -1.5830   -3.5810   -0.9930 o         1 MOL     -0.612501
     56 H20        -5.2910   -5.1620   -3.0290 hn        1 MOL      0.300978
     57 H21        -4.0070   -3.1360   -1.3990 h1        1 MOL      0.037712
     58 H22        -3.0600   -4.3030   -3.5330 hc        1 MOL      0.033225
     59 H23        -3.1180   -5.8150   -2.5800 hc        1 MOL      0.033225
     60 H24        -0.6280   -5.2720   -3.4390 hn        1 MOL      0.343665
     61 H25         0.2990   -4.3030   -2.3280 hn        1 MOL      0.343665
     62 N7         -3.9450   -4.2570    0.8400 n         1 MOL     -0.096140
     63 C20        -3.8860   -4.8230    2.1650 c3        1 MOL     -0.164769
     64 C21        -2.4820   -5.1400    2.6720 c         1 MOL      0.575325
     65 O12        -2.2420   -5.9050    3.6360 o         1 MOL     -0.575055
     66 H26        -3.9590   -3.2550    0.7870 hn        1 MOL      0.220252
     67 H27        -4.4830   -5.7330    2.1290 h1        1 MOL      0.067165
     68 H28        -4.3600   -4.0850    2.8100 h1        1 MOL      0.067165
     69 N8         -1.4700   -4.5870    1.9260 n         1 MOL     -0.207949
     70 C22        -0.0420   -4.8200    2.2290 c3        1 MOL     -0.182790
     71 C23         0.8290   -3.5690    2.0260 c         1 MOL      0.542661
     72 O13         0.4420   -2.6680    1.2990 o         1 MOL     -0.529274
     73 C24         0.5800   -6.0100    1.4750 c3        1 MOL      0.497475
     74 C25         0.2010   -7.3700    1.9680 c3        1 MOL     -0.480282
     75 O14         0.2400   -6.0680    0.0590 oh        1 MOL     -0.605392
     76 H29        -1.6820   -4.0220    1.1170 hn        1 MOL      0.101834
     77 H30        -0.0470   -5.0860    3.2880 h1        1 MOL      0.062387
     78 H31         1.6670   -5.9600    1.6180 h1        1 MOL     -0.010937
     79 H32         0.9760   -5.5960   -0.3520 ho        1 MOL      0.367499
     80 H33         0.6660   -8.1230    1.3250 hc        1 MOL      0.112335
     81 H34         0.6470   -7.5280    2.9450 hc        1 MOL      0.112335
     82 H35        -0.8660   -7.5760    1.9570 hc        1 MOL      0.112335
     83 N9          2.0000   -3.4980    2.6270 n         1 MOL     -0.412294
     84 C26         2.8960   -2.3260    2.5950 c3        1 MOL      0.034297
     85 C27         3.9120   -2.7610    1.5640 c         1 MOL      0.479983
     86 O15         4.6290   -3.7010    1.8180 o         1 MOL     -0.571922
     87 C28         3.3970   -2.0160    4.0440 c3        1 MOL      0.252868
     88 C29         4.8190   -1.4490    4.0880 c3        1 MOL     -0.321032
     89 C30         2.4630   -1.1130    4.8230 c3        1 MOL     -0.494770
     90 C31         5.1400   -0.2990    3.1820 c3        1 MOL      0.167661
     91 H36         2.4560   -4.3590    2.9000 hn        1 MOL      0.251400
     92 H37         2.3790   -1.4760    2.1370 h1        1 MOL      0.080014
     93 H38         3.3740   -2.9570    4.5980 hc        1 MOL      0.005756
     94 H39         5.5320   -2.2660    3.9560 hc        1 MOL      0.062249
     95 H40         4.8790   -1.0770    5.1160 hc        1 MOL      0.062249
     96 H41         2.7200   -0.0720    4.6390 hc        1 MOL      0.122270
     97 H42         1.4680   -1.5210    4.6500 hc        1 MOL      0.122270
     98 H43         2.6320   -1.1300    5.8960 hc        1 MOL      0.122270
     99 H44         4.3860    0.4920    3.1560 hc        1 MOL     -0.017037
    100 H45         5.9590    0.3320    3.5250 hc        1 MOL     -0.017037
    101 H46         5.5430   -0.6210    2.2240 hc        1 MOL     -0.017037
    102 N10         3.9450   -2.1590    0.4010 n         1 MOL     -0.344872
    103 C32         4.6620   -2.6710   -0.8030 c3        1 MOL      0.159740
    104 C33         5.8480   -1.7810   -1.2460 c         1 MOL      0.475584
    105 O16         6.4380   -1.9510   -2.2940 o         1 MOL     -0.555741
    106 C34         3.7260   -2.9660   -1.9800 c3        1 MOL     -0.413285
    107 C35         2.3480   -3.4230   -1.5910 c         1 MOL      1.002606
    108 O17         2.1190   -4.5470   -1.0340 o         1 MOL     -0.797847
    109 O18         1.4810   -2.7140   -2.0020 o         1 MOL     -0.797847
    110 H47         3.3390   -1.3650    0.2730 hn        1 MOL      0.161758
    111 H48         5.2390   -3.5630   -0.5530 h1        1 MOL      0.071512
    112 H49         4.2070   -3.8070   -2.4680 hc        1 MOL      0.101018
    113 H50         3.7050   -2.1960   -2.7560 hc        1 MOL      0.101018
    114 N11         6.0630   -0.6490   -0.6390 n         1 MOL     -0.348697
    115 C36         7.0470    0.4040   -1.0310 c3        1 MOL      0.144171
    116 C37         6.6980    1.7410   -0.5340 c         1 MOL      0.334952
    117 O19         6.3570    1.8250    0.6780 o         1 MOL     -0.540710
    118 C38         8.3980   -0.0140   -0.4400 c3        1 MOL     -0.245874
    119 C39         9.5210    0.9800   -0.3940 ca        1 MOL      0.170150
    120 C40         9.6370    1.8340    0.7080 ca        1 MOL     -0.189094
    121 C41        10.3740    1.0630   -1.5500 ca        1 MOL     -0.189094
    122 C42        10.7380    2.7540    0.7620 ca        1 MOL     -0.125399
    123 C43        11.4780    1.9700   -1.5290 ca        1 MOL     -0.125399
    124 C44        11.6230    2.7910   -0.3150 ca        1 MOL     -0.133428
    125 H51         5.5470   -0.3790    0.1930 hn        1 MOL      0.213103
    126 H52         7.1360    0.4130   -2.1160 h1        1 MOL      0.030423
    127 H53         8.7670   -0.7900   -1.1050 hc        1 MOL      0.097450
    128 H54         8.3690   -0.3720    0.5870 hc        1 MOL      0.097450
    129 H55         8.9490    1.7660    1.5310 ha        1 MOL      0.138070
    130 H56        10.0260    0.5750   -2.4510 ha        1 MOL      0.138070
    131 H57        10.9600    3.4050    1.5900 ha        1 MOL      0.122381
    132 H58        12.1070    2.1630   -2.3860 ha        1 MOL      0.122381
    133 H59        12.3700    3.5690   -0.3470 ha        1 MOL      0.097820
    134 N12         6.7220    2.7770   -1.3250 n         1 MOL      0.176752
    135 C45         6.6930    4.1620   -0.9010 c3        1 MOL     -0.193951
    136 C46         5.2630    4.7260   -0.6750 c         1 MOL      0.628672
    137 O20         5.1100    5.9380   -0.7580 o         1 MOL     -0.555380
    138 C47         7.5320    4.8420   -1.9760 c3        1 MOL     -0.080196
    139 C48         7.1420    4.1880   -3.2230 c3        1 MOL     -0.064219
    140 C49         6.9780    2.7380   -2.7300 c3        1 MOL     -0.345495
    141 H60         7.2500    4.3400    0.0280 h1        1 MOL      0.087358
    142 H61         7.3980    5.9120   -2.1090 hc        1 MOL      0.062657
    143 H62         8.5820    4.5500   -1.8930 hc        1 MOL      0.062657
    144 H63         6.1960    4.6260   -3.5440 hc        1 MOL      0.064698
    145 H64         7.9820    4.3220   -3.8980 hc        1 MOL      0.064698
    146 H65         6.0760    2.3900   -3.2260 h1        1 MOL      0.133214
    147 H66         7.9460    2.2450   -2.8790 h1        1 MOL      0.133214
    148 N13         4.3060    3.8520   -0.3760 n         1 MOL     -0.349227
    149 C50         2.9280    4.2410   -0.0650 c3        1 MOL     -0.236551
    150 C51         2.6280    4.9820    1.2640 c         1 MOL      0.465339
    151 O21         1.5050    5.4220    1.4590 o         1 MOL     -0.487652
    152 C52         2.0500    3.0630   -0.2790 c3        1 MOL      0.030712
    153 C53         2.2650    1.9130    0.7270 c3        1 MOL      0.101955
    154 C54         1.3660    0.7640    0.4120 c         1 MOL      0.439675
    155 O22         1.8830   -0.2580   -0.1240 o         1 MOL     -0.624380
    156 O23         0.1510    0.7480    0.6290 o         1 MOL     -0.624380
    157 H67         4.5260    2.8720   -0.3530 hn        1 MOL      0.227824
    158 H68         2.6030    5.0000   -0.7750 h1        1 MOL      0.148271
    159 H69         2.3240    2.6100   -1.2350 hc        1 MOL      0.044010
    160 H70         1.0010    3.3680   -0.3050 hc        1 MOL      0.044010
    161 H71         1.9450    2.3510    1.6660 hc        1 MOL     -0.007690
    162 H72         3.3060    1.6160    0.8330 hc        1 MOL     -0.007690
    163 N14         3.6150    5.1040    2.1780 n         1 MOL     -0.242066
    164 C55         3.5120    5.7490    3.5340 c3        1 MOL     -0.085875
    165 H73         4.2350    6.5600    3.6050 h1        1 MOL      0.071620
    166 H74         2.5070    6.1460    3.6730 h1        1 MOL      0.071620
    167 H75         3.7210    5.0080    4.3060 h1        1 MOL      0.071620
    168 H76         4.4030    4.5560    1.8770 hn        1 MOL      0.191761
    169 Ca1        -0.3650   -1.2720   -0.8570 Ca        1 MOL      1.798037
    170 O24         0.3610   -0.1000   -3.2050 oh        1 MOL     -0.859776
    171 H77         0.9430    0.4290   -3.7480 ho        1 MOL      0.412177
    172 H78        -0.4860   -0.0410   -3.6400 ho        1 MOL      0.412177
    173 O25        -2.2690   -1.2060    0.9370 oh        1 MOL     -0.859776
    174 H79        -3.2160   -1.2730    1.0040 ho        1 MOL      0.412177
    175 H80        -2.0000   -0.7930    1.7610 ho        1 MOL      0.412177
@<TRIPOS>BOND
     1    1    2 1   
     2    1    4 1   
     3    1    5 1   
     4    1    6 1   
     5    2    3 2   
     6    2    7 1   
     7    7    8 1   
     8    7   15 1   
     9    8    9 1   
    10    8   11 1   
    11    8   16 1   
    12    9   10 2   
    13    9   19 1   
    14   11   12 1   
    15   11   17 1   
    16   11   18 1   
    17   12   13 1   
    18   12   14 1   
    19   19   20 1   
    20   19   24 1   
    21   20   21 1   
    22   20   23 1   
    23   20   25 1   
    24   21   22 2   
    25   21   29 1   
    26   23   26 1   
    27   23   27 1   
    28   23   28 1   
    29   29   30 1   
    30   29   37 1   
    31   30   31 1   
    32   30   33 1   
    33   30   38 1   
    34   31   32 2   
    35   31   41 1   
    36   33   34 1   
    37   33   39 1   
    38   33   40 1   
    39   34   35 1   
    40   34   36 1   
    41   41   42 1   
    42   41   45 1   
    43   42   43 1   
    44   42   46 1   
    45   42   47 1   
    46   43   44 2   
    47   43   48 1   
    48   48   49 1   
    49   48   56 1   
    50   49   50 1   
    51   49   52 1   
    52   49   57 1   
    53   50   51 2   
    54   50   62 1   
    55   52   53 1   
    56   52   58 1   
    57   52   59 1   
    58   53   54 1   
    59   53   55 2   
    60   54   60 1   
    61   54   61 1   
    62   62   63 1   
    63   62   66 1   
    64   63   64 1   
    65   63   67 1   
    66   63   68 1   
    67   64   65 2   
    68   64   69 1   
    69   69   70 1   
    70   69   76 1   
    71   70   71 1   
    72   70   73 1   
    73   70   77 1   
    74   71   72 2   
    75   71   83 1   
    76   73   74 1   
    77   73   75 1   
    78   73   78 1   
    79   74   80 1   
    80   74   81 1   
    81   74   82 1   
    82   75   79 1   
    83   83   84 1   
    84   83   91 1   
    85   84   85 1   
    86   84   87 1   
    87   84   92 1   
    88   85   86 2   
    89   85  102 1   
    90   87   88 1   
    91   87   89 1   
    92   87   93 1   
    93   88   90 1   
    94   88   94 1   
    95   88   95 1   
    96   89   96 1   
    97   89   97 1   
    98   89   98 1   
    99   90   99 1   
   100   90  100 1   
   101   90  101 1   
   102  102  103 1   
   103  102  110 1   
   104  103  104 1   
   105  103  106 1   
   106  103  111 1   
   107  104  105 2   
   108  104  114 1   
   109  106  107 1   
   110  106  112 1   
   111  106  113 1   
   112  107  108 1   
   113  107  109 1   
   114  114  115 1   
   115  114  125 1   
   116  115  116 1   
   117  115  118 1   
   118  115  126 1   
   119  116  117 2   
   120  116  134 1   
   121  118  119 1   
   122  118  127 1   
   123  118  128 1   
   124  119  120 ar  
   125  119  121 ar  
   126  120  122 ar  
   127  120  129 1   
   128  121  123 ar  
   129  121  130 1   
   130  122  124 ar  
   131  122  131 1   
   132  123  124 ar  
   133  123  132 1   
   134  124  133 1   
   135  134  135 1   
   136  134  140 1   
   137  135  136 1   
   138  135  138 1   
   139  135  141 1   
   140  136  137 2   
   141  136  148 1   
   142  138  139 1   
   143  138  142 1   
   144  138  143 1   
   145  139  140 1   
   146  139  144 1   
   147  139  145 1   
   148  140  146 1   
   149  140  147 1   
   150  148  149 1   
   151  148  157 1   
   152  149  150 1   
   153  149  152 1   
   154  149  158 1   
   155  150  151 2   
   156  150  163 1   
   157  152  153 1   
   158  152  159 1   
   159  152  160 1   
   160  153  154 1   
   161  153  161 1   
   162  153  162 1   
   163  154  155 1   
   164  154  156 1   
   165  163  164 1   
   166  163  168 1   
   167  164  165 1   
   168  164  166 1   
   169  164  167 1   
   170  170  171 1   
   171  170  172 1   
   172  173  174 1   
   173  173  175 1   
@<TRIPOS>SUBSTRUCTURE
     1 MOL         1 TEMP              0 ****  ****    0 ROOT
