@<TRIPOS>MOLECULE
MOL
  191   184     1     0     0
SMALL
resp


@<TRIPOS>ATOM
      1 C1         -4.5060    0.1600   -3.4140 c3        1 MOL     -0.518126
      2 C2         -5.3710    0.4620   -2.1660 c         1 MOL      0.608902
      3 O1         -4.9790    0.1560   -1.0800 o         1 MOL     -0.467513
      4 H1         -5.0770   -0.4520   -4.1110 hc        1 MOL      0.142702
      5 H2         -4.2270    1.0960   -3.8980 hc        1 MOL      0.142702
      6 H3         -3.6070   -0.3760   -3.1120 hc        1 MOL      0.142702
      7 N1         -6.4310    1.2240   -2.1880 n         1 MOL     -0.486877
      8 C3         -7.1500    1.7170   -0.9670 c3        1 MOL      0.040909
      9 C4         -7.5250    0.6560    0.0790 c         1 MOL      0.475382
     10 O2         -7.5360    0.9490    1.2580 o         1 MOL     -0.533481
     11 C5         -6.5210    2.9620   -0.3210 c3        1 MOL      0.020971
     12 C6         -6.6370    4.2100   -1.2030 c         1 MOL      0.599975
     13 O3         -7.4370    4.2800   -2.1610 o         1 MOL     -0.652617
     14 O4         -5.9000    5.1800   -0.8890 o         1 MOL     -0.652617
     15 H4         -6.7420    1.4040   -3.1310 hn        1 MOL      0.284354
     16 H5         -8.1380    2.0580   -1.2790 h1        1 MOL      0.029211
     17 H6         -5.5030    2.7510    0.0110 hc        1 MOL      0.034528
     18 H7         -7.1090    3.3000    0.5360 hc        1 MOL      0.034528
     19 N2         -7.6670   -0.5730   -0.3610 n         1 MOL     -0.276126
     20 C7         -7.9710   -1.7300    0.4300 c3        1 MOL     -0.022433
     21 C8         -6.7370   -2.6730    0.5430 c         1 MOL      0.482131
     22 O5         -6.8160   -3.7940    1.0320 o         1 MOL     -0.579713
     23 C9         -9.1380   -2.5280   -0.1870 c3        1 MOL      0.272701
     24 C10       -10.3590   -1.5930   -0.2610 c3        1 MOL     -0.163777
     25 C11       -11.6850   -2.2650   -0.3140 c3        1 MOL      0.081209
     26 C12       -11.8000   -2.9340   -1.6530 c3        1 MOL      0.028544
     27 N3        -13.1230   -3.5050   -1.8130 n4        1 MOL     -0.256355
     28 H8         -7.2650   -0.6590   -1.2930 hn        1 MOL      0.150584
     29 H9         -8.2970   -1.4540    1.4330 h1        1 MOL      0.115492
     30 H10        -9.4780   -3.3160    0.4910 hc        1 MOL     -0.061145
     31 H11        -8.8860   -3.0360   -1.1150 hc        1 MOL     -0.061145
     32 H12       -10.1510   -1.0200   -1.1690 hc        1 MOL      0.029798
     33 H13       -10.3860   -1.0060    0.6470 hc        1 MOL      0.029798
     34 H14       -12.5640   -1.6240   -0.2580 hc        1 MOL      0.023934
     35 H15       -11.8210   -2.9310    0.5370 hc        1 MOL      0.023934
     36 H16       -11.0980   -3.7610   -1.7110 hx        1 MOL      0.066784
     37 H17       -11.6280   -2.2400   -2.4750 hx        1 MOL      0.066784
     38 H18       -13.7800   -2.8000   -2.0960 hn        1 MOL      0.231146
     39 H19       -13.0980   -4.3080   -2.4230 hn        1 MOL      0.231146
     40 H20       -13.4980   -3.9730   -1.0010 hn        1 MOL      0.231146
     41 N4         -5.5710   -2.3010   -0.0130 n         1 MOL     -0.313592
     42 C13        -4.3020   -3.0010    0.1370 c3        1 MOL     -0.106972
     43 C14        -3.7860   -3.0010    1.5960 c         1 MOL      0.706004
     44 O6         -4.1650   -2.0790    2.3100 o         1 MOL     -0.497528
     45 C15        -3.2700   -2.2820   -0.8330 c3        1 MOL     -0.061816
     46 C16        -1.9500   -2.9690   -0.7520 c         1 MOL      0.689890
     47 O7         -1.1240   -2.6340    0.1470 o         1 MOL     -0.707907
     48 O8         -1.7450   -3.8770   -1.5770 o         1 MOL     -0.707907
     49 H21        -5.5560   -1.3440   -0.3330 hn        1 MOL      0.196826
     50 H22        -4.3820   -4.0040   -0.2840 h1        1 MOL      0.073843
     51 H23        -3.0300   -1.2880   -0.4610 hc        1 MOL      0.044836
     52 H24        -3.6260   -2.4000   -1.8590 hc        1 MOL      0.044836
     53 N5         -3.0630   -3.9930    2.0420 n         1 MOL     -0.513132
     54 C17        -2.4260   -4.1020    3.3650 c3        1 MOL     -0.022817
     55 C18        -1.3500   -3.0060    3.7240 c         1 MOL      0.464645
     56 O9         -0.8540   -3.0230    4.7960 o         1 MOL     -0.522887
     57 H25        -2.8650   -4.7720    1.4310 hn        1 MOL      0.296404
     58 H26        -1.8160   -5.0050    3.4090 h1        1 MOL      0.081491
     59 H27        -3.1410   -4.1730    4.1910 h1        1 MOL      0.081491
     60 N6         -1.0480   -2.0460    2.8070 n         1 MOL     -0.290483
     61 C19        -0.2620   -0.7850    3.0140 c3        1 MOL      0.120589
     62 C20        -1.1040    0.4270    2.9300 c         1 MOL      0.310408
     63 O10        -0.5850    1.5870    2.9650 o         1 MOL     -0.482164
     64 C21         0.8130   -0.7980    1.9290 c3        1 MOL     -0.465147
     65 C22         1.8890   -1.9480    2.0830 c         1 MOL      0.754645
     66 N7          2.8940   -1.7870    2.9290 n         1 MOL     -0.709801
     67 O11         1.8540   -3.0150    1.4680 o         1 MOL     -0.669777
     68 H28        -1.3050   -2.3230    1.8690 hn        1 MOL      0.105049
     69 H29         0.2570   -0.7880    3.9720 h1        1 MOL      0.088705
     70 H30         1.3670    0.1360    1.9680 hc        1 MOL      0.188756
     71 H31         0.2290   -0.8940    1.0160 hc        1 MOL      0.188756
     72 H32         2.9510   -1.0510    3.6200 hn        1 MOL      0.351998
     73 H33         3.5270   -2.5700    3.0180 hn        1 MOL      0.351998
     74 N8         -2.4220    0.2270    2.7470 n         1 MOL      0.014077
     75 C23        -3.4460    1.2320    2.8380 c3        1 MOL     -0.268337
     76 C24        -3.2780    2.3430    1.7350 c         1 MOL      0.628121
     77 O12        -3.5700    3.4930    2.0220 o         1 MOL     -0.537755
     78 H34        -2.7280   -0.7250    2.7030 hn        1 MOL      0.105138
     79 H35        -3.4090    1.7010    3.8260 h1        1 MOL      0.121616
     80 H36        -4.3770    0.6900    2.7300 h1        1 MOL      0.121616
     81 N9         -2.5780    2.1130    0.6210 n         1 MOL     -0.323947
     82 C25        -1.7550    3.0100   -0.1690 c3        1 MOL      0.094501
     83 C26        -0.5270    2.3170   -0.7880 c         1 MOL      0.614151
     84 O13        -0.5560    1.1810   -1.1930 o         1 MOL     -0.546398
     85 C27        -2.6080    3.8720   -1.0920 c3        1 MOL     -0.192290
     86 C28        -2.0610    5.2450   -1.2560 ca        1 MOL      0.158005
     87 C29        -2.1970    6.1600   -0.2380 ca        1 MOL     -0.235325
     88 C30        -1.4110    5.5550   -2.4660 ca        1 MOL     -0.235325
     89 C31        -1.7980    7.4730   -0.4250 ca        1 MOL     -0.027256
     90 C32        -0.9220    6.8260   -2.6300 ca        1 MOL     -0.027256
     91 C33        -1.0740    7.8150   -1.6020 ca        1 MOL      0.021311
     92 O14        -0.7400    9.1210   -1.8800 oh        1 MOL     -0.415440
     93 H37        -2.2650    1.1580    0.5110 hn        1 MOL      0.169272
     94 H38        -1.3720    3.7620    0.5210 h1        1 MOL      0.012285
     95 H39        -3.5950    3.9440   -0.6260 hc        1 MOL      0.075665
     96 H40        -2.8270    3.3470   -2.0250 hc        1 MOL      0.075665
     97 H41        -2.6700    5.8450    0.6800 ha        1 MOL      0.156189
     98 H42        -1.4400    4.8460   -3.2800 ha        1 MOL      0.156189
     99 H43        -1.9570    8.1980    0.3550 ha        1 MOL      0.102844
    100 H44        -0.5550    7.0960   -3.6170 ha        1 MOL      0.102844
    101 H45        -0.2780    9.1950   -2.7160 ho        1 MOL      0.337381
    102 N10         0.5800    3.0730   -0.8460 n         1 MOL     -0.580067
    103 C34         1.9190    2.4650   -1.1820 c3        1 MOL      0.458811
    104 C35         2.6590    2.1210    0.1210 c         1 MOL      0.294130
    105 O15         3.3710    1.1310    0.3140 o         1 MOL     -0.544329
    106 C36         2.7470    3.3370   -2.1450 c3        1 MOL      0.128873
    107 C37         1.9650    3.7280   -3.3700 c3        1 MOL     -0.106229
    108 C38         4.0460    2.6740   -2.6000 c3        1 MOL     -0.261935
    109 C39         1.2780    2.6080   -4.1620 c3        1 MOL      0.020772
    110 H46         0.5700    4.0580   -0.6370 hn        1 MOL      0.254789
    111 H47         1.6970    1.5340   -1.7060 h1        1 MOL     -0.062688
    112 H48         3.0320    4.2630   -1.6540 hc        1 MOL     -0.046029
    113 H49         2.5920    4.2960   -4.0530 hc        1 MOL     -0.007227
    114 H50         1.1690    4.4000   -3.0530 hc        1 MOL     -0.007227
    115 H51         4.3860    3.1840   -3.4990 hc        1 MOL      0.081017
    116 H52         4.8050    2.7180   -1.8190 hc        1 MOL      0.081017
    117 H53         3.8400    1.6160   -2.7540 hc        1 MOL      0.081017
    118 H54         0.5860    3.0100   -4.9040 hc        1 MOL      0.002237
    119 H55         2.0120    1.9880   -4.6850 hc        1 MOL      0.002237
    120 H56         0.7190    1.9320   -3.5280 hc        1 MOL      0.002237
    121 N11         2.4840    3.0090    1.0870 n         1 MOL     -0.388527
    122 C40         2.9020    2.8020    2.4930 c3        1 MOL     -0.305415
    123 C41         4.4200    2.8520    2.7400 c         1 MOL      0.624446
    124 O16         4.9050    2.1140    3.6080 o         1 MOL     -0.533864
    125 C42         2.3190    3.9980    3.3410 c3        1 MOL      0.377733
    126 O17         2.3950    3.7550    4.6980 oh        1 MOL     -0.590294
    127 H57         2.1130    3.9140    0.8170 hn        1 MOL      0.259618
    128 H58         2.3600    1.9240    2.8550 h1        1 MOL      0.220055
    129 H59         1.2670    4.2430    3.1930 h1        1 MOL     -0.038627
    130 H60         2.9110    4.8680    3.0600 h1        1 MOL     -0.038627
    131 H61         2.6200    4.5930    5.1070 ho        1 MOL      0.402827
    132 N12         5.1750    3.6220    1.9840 n         1 MOL     -0.314774
    133 C43         6.6350    3.7110    2.1060 c3        1 MOL      0.022262
    134 C44         7.4330    2.3520    1.9860 c         1 MOL      0.611924
    135 O18         8.5760    2.2960    2.4050 o         1 MOL     -0.577460
    136 C45         6.9700    4.4150    3.4060 c3        1 MOL     -0.340355
    137 H62         4.7760    4.0740    1.1740 hn        1 MOL      0.250314
    138 H63         7.0110    4.2380    1.2320 h1        1 MOL      0.070953
    139 H64         6.3690    5.2990    3.6080 hc        1 MOL      0.106525
    140 H65         6.8560    3.7460    4.2540 hc        1 MOL      0.106525
    141 H66         8.0030    4.7680    3.3880 hc        1 MOL      0.106525
    142 N13         6.9180    1.3280    1.4040 n         1 MOL     -0.568768
    143 C46         7.5030   -0.0100    1.3460 c3        1 MOL      0.383410
    144 C47         7.6890   -0.5400   -0.1240 c         1 MOL      0.243496
    145 O19         6.9360   -0.2510   -1.0930 o         1 MOL     -0.439257
    146 C48         6.5510   -0.8980    2.1760 c3        1 MOL     -0.286723
    147 H67         6.0300    1.6250    1.0140 hn        1 MOL      0.271835
    148 H68         8.4740    0.0550    1.8390 h1        1 MOL      0.021002
    149 H69         6.4230   -0.5240    3.2000 hc        1 MOL      0.080396
    150 H70         5.5240   -0.9040    1.8170 hc        1 MOL      0.080396
    151 H71         6.9810   -1.9020    2.2500 hc        1 MOL      0.080396
    152 N14         8.7950   -1.2390   -0.3630 n         1 MOL     -0.316223
    153 C49         9.3730   -1.8370   -1.5300 c3        1 MOL      0.173488
    154 C50         9.2460   -1.0420   -2.8840 c         1 MOL      0.329208
    155 O20         8.8420   -1.5630   -3.9270 o         1 MOL     -0.469170
    156 C51         9.0540   -3.2620   -1.7420 c3        1 MOL     -0.070584
    157 C52         7.5560   -3.6570   -1.9560 c3        1 MOL     -0.282281
    158 C53         7.4010   -5.1660   -1.9170 c         1 MOL      0.851839
    159 O21         7.3350   -5.7500   -0.7950 o         1 MOL     -0.730272
    160 O22         7.2120   -5.7590   -2.9310 o         1 MOL     -0.730272
    161 H72         9.3350   -1.2750    0.4860 hn        1 MOL      0.236967
    162 H73        10.4550   -1.8570   -1.3790 h1        1 MOL     -0.005655
    163 H74         9.3870   -3.8400   -0.8740 hc        1 MOL      0.034913
    164 H75         9.6910   -3.6300   -2.5440 hc        1 MOL      0.034913
    165 H76         7.1150   -3.2550   -2.8680 hc        1 MOL      0.061280
    166 H77         6.9870   -3.2980   -1.1020 hc        1 MOL      0.061280
    167 N15         9.5320    0.2040   -2.8060 n         1 MOL     -0.200413
    168 C54         9.2410    1.2090   -3.8380 c3        1 MOL     -0.086898
    169 H78         9.7900    2.1250   -3.6180 h1        1 MOL      0.070051
    170 H79         9.5460    0.8280   -4.8140 h1        1 MOL      0.070051
    171 H80         8.1710    1.4210   -3.8490 h1        1 MOL      0.070051
    172 H81         9.9360    0.5020   -1.9310 hn        1 MOL      0.205795
    173 Ca1         0.9020   -4.4250   -0.5890 Ca        1 MOL      1.770202
    174 O23         1.1770   -4.2670   -3.3530 oh        1 MOL     -0.837611
    175 H82         0.4750   -4.2810   -4.0130 ho        1 MOL      0.420099
    176 H83         1.8760   -4.7880   -3.7370 ho        1 MOL      0.420099
    177 O24        -0.1330   -5.8210    1.2940 oh        1 MOL     -0.837611
    178 H84         0.5610   -6.2440    1.8020 ho        1 MOL      0.420099
    179 H85        -0.9370   -6.0450    1.7610 ho        1 MOL      0.420099
    180 O25        -0.0220   -6.6290   -1.8270 oh        1 MOL     -0.837611
    181 H86        -0.7220   -7.2190   -2.0900 ho        1 MOL      0.420099
    182 H87         0.7590   -6.9720   -2.2670 ho        1 MOL      0.420099
    183 O26         1.3390   -1.7570   -1.3390 oh        1 MOL     -0.837611
    184 H88         2.0750   -1.1880   -1.1380 ho        1 MOL      0.420099
    185 H89         0.5680   -1.1920   -1.2390 ho        1 MOL      0.420099
    186 O27         3.7790   -3.8940   -1.1560 oh        1 MOL     -0.837611
    187 H90         3.8630   -2.9400   -1.1310 ho        1 MOL      0.420099
    188 H91         4.2250   -4.1610   -1.9600 ho        1 MOL      0.420099
    189 O28         2.8030   -5.9900    0.6820 oh        1 MOL     -0.837611
    190 H92         3.5840   -5.4360    0.7010 ho        1 MOL      0.420099
    191 H93         3.0110   -6.7170    1.2700 ho        1 MOL      0.420099
@<TRIPOS>BOND
     1    1    2 1   
     2    1    4 1   
     3    1    5 1   
     4    1    6 1   
     5    2    3 2   
     6    2    7 1   
     7    7    8 1   
     8    7   15 1   
     9    8    9 1   
    10    8   11 1   
    11    8   16 1   
    12    9   10 2   
    13    9   19 1   
    14   11   12 1   
    15   11   17 1   
    16   11   18 1   
    17   12   13 1   
    18   12   14 1   
    19   19   20 1   
    20   19   28 1   
    21   20   21 1   
    22   20   23 1   
    23   20   29 1   
    24   21   22 2   
    25   21   41 1   
    26   23   24 1   
    27   23   30 1   
    28   23   31 1   
    29   24   25 1   
    30   24   32 1   
    31   24   33 1   
    32   25   26 1   
    33   25   34 1   
    34   25   35 1   
    35   26   27 1   
    36   26   36 1   
    37   26   37 1   
    38   27   38 1   
    39   27   39 1   
    40   27   40 1   
    41   41   42 1   
    42   41   49 1   
    43   42   43 1   
    44   42   45 1   
    45   42   50 1   
    46   43   44 2   
    47   43   53 1   
    48   45   46 1   
    49   45   51 1   
    50   45   52 1   
    51   46   47 1   
    52   46   48 1   
    53   53   54 1   
    54   53   57 1   
    55   54   55 1   
    56   54   58 1   
    57   54   59 1   
    58   55   56 2   
    59   55   60 1   
    60   60   61 1   
    61   60   68 1   
    62   61   62 1   
    63   61   64 1   
    64   61   69 1   
    65   62   63 2   
    66   62   74 1   
    67   64   65 1   
    68   64   70 1   
    69   64   71 1   
    70   65   66 1   
    71   65   67 2   
    72   66   72 1   
    73   66   73 1   
    74   74   75 1   
    75   74   78 1   
    76   75   76 1   
    77   75   79 1   
    78   75   80 1   
    79   76   77 2   
    80   76   81 1   
    81   81   82 1   
    82   81   93 1   
    83   82   83 1   
    84   82   85 1   
    85   82   94 1   
    86   83   84 2   
    87   83  102 1   
    88   85   86 1   
    89   85   95 1   
    90   85   96 1   
    91   86   87 ar  
    92   86   88 ar  
    93   87   89 ar  
    94   87   97 1   
    95   88   90 ar  
    96   88   98 1   
    97   89   91 ar  
    98   89   99 1   
    99   90   91 ar  
   100   90  100 1   
   101   91   92 1   
   102   92  101 1   
   103  102  103 1   
   104  102  110 1   
   105  103  104 1   
   106  103  106 1   
   107  103  111 1   
   108  104  105 2   
   109  104  121 1   
   110  106  107 1   
   111  106  108 1   
   112  106  112 1   
   113  107  109 1   
   114  107  113 1   
   115  107  114 1   
   116  108  115 1   
   117  108  116 1   
   118  108  117 1   
   119  109  118 1   
   120  109  119 1   
   121  109  120 1   
   122  121  122 1   
   123  121  127 1   
   124  122  123 1   
   125  122  125 1   
   126  122  128 1   
   127  123  124 2   
   128  123  132 1   
   129  125  126 1   
   130  125  129 1   
   131  125  130 1   
   132  126  131 1   
   133  132  133 1   
   134  132  137 1   
   135  133  134 1   
   136  133  136 1   
   137  133  138 1   
   138  134  135 2   
   139  134  142 1   
   140  136  139 1   
   141  136  140 1   
   142  136  141 1   
   143  142  143 1   
   144  142  147 1   
   145  143  144 1   
   146  143  146 1   
   147  143  148 1   
   148  144  145 2   
   149  144  152 1   
   150  146  149 1   
   151  146  150 1   
   152  146  151 1   
   153  152  153 1   
   154  152  161 1   
   155  153  154 1   
   156  153  156 1   
   157  153  162 1   
   158  154  155 2   
   159  154  167 1   
   160  156  157 1   
   161  156  163 1   
   162  156  164 1   
   163  157  158 1   
   164  157  165 1   
   165  157  166 1   
   166  158  159 1   
   167  158  160 1   
   168  167  168 1   
   169  167  172 1   
   170  168  169 1   
   171  168  170 1   
   172  168  171 1   
   173  174  175 1   
   174  174  176 1   
   175  177  178 1   
   176  177  179 1   
   177  180  181 1   
   178  180  182 1   
   179  183  184 1   
   180  183  185 1   
   181  186  187 1   
   182  186  188 1   
   183  189  190 1   
   184  189  191 1   
@<TRIPOS>SUBSTRUCTURE
     1 MOL         1 TEMP              0 ****  ****    0 ROOT
