@<TRIPOS>MOLECULE
MOL
  198   191     1     0     0
SMALL
resp


@<TRIPOS>ATOM
      1 C1          3.9590    6.4240    0.2760 c3        1 MOL     -0.386870
      2 C2          5.4320    6.2020   -0.0150 c         1 MOL      0.697497
      3 O1          6.2890    6.7250    0.6970 o         1 MOL     -0.553904
      4 H1          3.8540    6.9940    1.1990 hc        1 MOL      0.095138
      5 H2          3.5060    6.9780   -0.5460 hc        1 MOL      0.095138
      6 H3          3.4610    5.4620    0.3850 hc        1 MOL      0.095138
      7 N1          5.7850    5.2930   -0.9160 n         1 MOL     -0.613532
      8 C3          7.1900    4.8670   -1.2970 c3        1 MOL      0.162122
      9 C4          8.0540    4.2400   -0.1750 c         1 MOL      0.449892
     10 O2          7.7580    4.2020    1.0410 o         1 MOL     -0.505969
     11 C5          7.9230    6.0770   -2.0180 c3        1 MOL     -0.325990
     12 C6          9.2150    5.7610   -2.7560 c         1 MOL      0.741922
     13 O3         10.0530    6.6920   -2.8870 o         1 MOL     -0.710972
     14 O4          9.4220    4.6410   -3.2580 o         1 MOL     -0.710972
     15 H4          5.0650    4.7210   -1.3350 hn        1 MOL      0.312193
     16 H5          7.1510    4.1420   -2.1160 h1        1 MOL      0.068555
     17 H6          8.1590    6.8790   -1.3140 hc        1 MOL      0.085372
     18 H7          7.2710    6.5190   -2.7750 hc        1 MOL      0.085372
     19 N2          9.2010    3.7170   -0.5870 n         1 MOL     -0.216692
     20 C7         10.1520    2.8510    0.1780 c3        1 MOL      0.211543
     21 C8          9.5160    1.4890    0.5900 c         1 MOL      0.405275
     22 O5          9.9730    0.8380    1.5320 o         1 MOL     -0.523486
     23 C9         10.7540    3.7060    1.3650 c3        1 MOL     -0.154563
     24 C10        11.9130    4.6560    0.9150 c3        1 MOL      0.016165
     25 C11        13.2590    3.8420    0.7880 c3        1 MOL     -0.235847
     26 C12        14.4990    4.7740    0.6780 c3        1 MOL      0.005763
     27 N3         14.8090    5.3970    1.9560 n4        1 MOL     -0.412119
     28 H8          9.3570    3.7920   -1.5840 hn        1 MOL      0.144048
     29 H9         11.0210    2.5990   -0.4390 h1        1 MOL      0.026654
     30 H10        11.2590    2.9860    2.0050 hc        1 MOL      0.046099
     31 H11        10.0210    4.2750    1.9380 hc        1 MOL      0.046099
     32 H12        12.0710    5.5130    1.5760 hc        1 MOL      0.038012
     33 H13        11.5720    5.0820   -0.0380 hc        1 MOL      0.038012
     34 H14        13.0970    3.3480   -0.1670 hc        1 MOL      0.099737
     35 H15        13.4660    3.0700    1.5330 hc        1 MOL      0.099737
     36 H16        14.3240    5.5540   -0.0670 hx        1 MOL      0.110800
     37 H17        15.2970    4.1230    0.3210 hx        1 MOL      0.110800
     38 H18        14.1360    6.1290    2.1650 hn        1 MOL      0.343264
     39 H19        14.8730    4.6830    2.6680 hn        1 MOL      0.343264
     40 H20        15.7710    5.7240    1.9930 hn        1 MOL      0.343264
     41 N4          8.4530    1.1850   -0.1280 n         1 MOL     -0.405575
     42 C13         7.6050    0.0560   -0.0370 c3        1 MOL      0.230644
     43 C14         6.7160   -0.1210   -1.3250 c         1 MOL      0.497669
     44 O6          6.2990    0.9030   -1.8880 o         1 MOL     -0.561840
     45 C15         6.7370    0.1710    1.2260 c3        1 MOL     -0.251677
     46 C16         5.7460   -1.0190    1.5000 c         1 MOL      0.739958
     47 O7          5.8390   -2.1230    0.9630 o         1 MOL     -0.742983
     48 O8          4.8110   -0.9020    2.3020 o         1 MOL     -0.742983
     49 H21         8.2860    1.8060   -0.8960 hn        1 MOL      0.195009
     50 H22         8.3220   -0.7600    0.0380 h1        1 MOL      0.028043
     51 H23         6.1250    1.0480    1.0280 hc        1 MOL      0.085534
     52 H24         7.3320    0.4690    2.1010 hc        1 MOL      0.085534
     53 N5          6.5200   -1.2990   -1.9230 n         1 MOL     -0.275139
     54 C17         7.4990   -2.3950   -1.9010 c3        1 MOL     -0.088215
     55 C18         6.9030   -3.7930   -2.0950 c         1 MOL      0.461169
     56 O9          7.2970   -4.4810   -3.0510 o         1 MOL     -0.553212
     57 H25         5.8860   -1.2280   -2.7060 hn        1 MOL      0.251902
     58 H26         8.0150   -2.4980   -0.9460 h1        1 MOL      0.073215
     59 H27         8.2660   -2.3060   -2.6650 h1        1 MOL      0.073215
     60 N6          5.9850   -4.1500   -1.2290 n         1 MOL      0.012122
     61 C19         5.1810   -5.3750   -1.2950 c3        1 MOL     -0.357558
     62 C20         3.7250   -5.1780   -0.8950 c         1 MOL      0.692345
     63 O10         3.4470   -4.3410   -0.0140 o         1 MOL     -0.627142
     64 C21         5.7580   -6.5190   -0.4240 c3        1 MOL      0.029588
     65 C22         6.1810   -6.2180    1.0370 c         1 MOL      0.551174
     66 O11         7.0220   -6.9700    1.6020 o         1 MOL     -0.649162
     67 O12         5.7570   -5.1720    1.6150 o         1 MOL     -0.649162
     68 H28         5.8070   -3.4820   -0.5000 hn        1 MOL      0.100326
     69 H29         5.3100   -5.7890   -2.2930 h1        1 MOL      0.094971
     70 H30         6.5920   -6.9320   -0.9930 hc        1 MOL      0.024683
     71 H31         5.1120   -7.3880   -0.2950 hc        1 MOL      0.024683
     72 N7          2.8110   -5.8270   -1.6490 n         1 MOL     -0.374677
     73 C23         1.4250   -5.8750   -1.2130 c3        1 MOL     -0.230014
     74 C24         0.5780   -4.5550   -1.4510 c         1 MOL      0.497275
     75 O13        -0.6790   -4.5360   -1.3180 o         1 MOL     -0.546505
     76 H32         3.1070   -6.4810   -2.3510 hn        1 MOL      0.314821
     77 H33         1.3670   -6.0480   -0.1460 h1        1 MOL      0.131997
     78 H34         0.9820   -6.7250   -1.7320 h1        1 MOL      0.131997
     79 N8          1.2800   -3.4500   -1.7870 n         1 MOL     -0.207008
     80 C25         0.8410   -2.0860   -2.0830 c3        1 MOL     -0.185985
     81 C26         0.0290   -1.4160   -0.9660 c         1 MOL      0.775266
     82 O14        -0.0110   -2.0120    0.1360 o         1 MOL     -0.578072
     83 C27         2.0920   -1.2330   -2.4440 c3        1 MOL      0.156175
     84 C28         2.9170   -0.9800   -1.2360 c3        1 MOL     -0.084764
     85 O15         2.9530   -1.9160   -3.3160 oh        1 MOL     -0.537734
     86 H35         2.2710   -3.6300   -1.8700 hn        1 MOL      0.130399
     87 H36         0.1720   -2.1500   -2.9440 h1        1 MOL      0.100495
     88 H37         1.7730   -0.2530   -2.7880 h1        1 MOL      0.048469
     89 H38         2.4860   -2.0910   -4.1380 ho        1 MOL      0.390497
     90 H39         3.3400   -1.8880   -0.8060 hc        1 MOL      0.032731
     91 H40         3.7300   -0.2950   -1.4660 hc        1 MOL      0.032731
     92 H41         2.4500   -0.4430   -0.4130 hc        1 MOL      0.032731
     93 N9         -0.7750   -0.3750   -1.2920 n         1 MOL     -0.464294
     94 C29        -1.4280    0.5820   -0.2630 c3        1 MOL     -0.448156
     95 C30        -2.6890   -0.0190    0.3110 c         1 MOL      0.626550
     96 O16        -3.1320    0.5190    1.3300 o         1 MOL     -0.550995
     97 C31        -1.6950    1.9840   -0.9350 c3        1 MOL      0.263020
     98 C32        -2.7020    1.9090   -2.1320 c3        1 MOL      0.049679
     99 C33        -0.3620    2.5860   -1.3720 c3        1 MOL     -0.320079
    100 C34        -3.3380    3.2480   -2.5750 c3        1 MOL     -0.277961
    101 H42        -0.7760   -0.0050   -2.2350 hn        1 MOL      0.226080
    102 H43        -0.7330    0.7470    0.5660 h1        1 MOL      0.220577
    103 H44        -2.1290    2.6630   -0.1920 hc        1 MOL      0.041625
    104 H45        -3.5630    1.3120   -1.8310 hc        1 MOL      0.037212
    105 H46        -2.2920    1.6010   -3.1030 hc        1 MOL      0.037212
    106 H47         0.3110    2.6600   -0.5200 hc        1 MOL      0.083469
    107 H48         0.1470    2.0670   -2.1920 hc        1 MOL      0.083469
    108 H49        -0.3180    3.5840   -1.8010 hc        1 MOL      0.083469
    109 H50        -2.5680    4.0110   -2.4810 hc        1 MOL      0.069519
    110 H51        -3.6370    3.0540   -3.6060 hc        1 MOL      0.069519
    111 H52        -4.2120    3.5210   -1.9700 hc        1 MOL      0.069519
    112 N10        -3.3570   -0.9320   -0.3740 n         1 MOL     -0.404637
    113 C35        -4.7290   -1.4920   -0.1790 c3        1 MOL      0.000140
    114 C36        -5.5620   -1.2020   -1.4260 c         1 MOL      0.715018
    115 O17        -4.9920   -1.4020   -2.4910 o         1 MOL     -0.586939
    116 C37        -4.6720   -2.9760    0.2780 c3        1 MOL      0.395578
    117 C38        -4.1240   -3.0930    1.7670 c3        1 MOL     -0.258910
    118 O18        -5.8680   -3.7170    0.3130 oh        1 MOL     -0.709545
    119 H53        -2.9640   -1.2330   -1.2560 hn        1 MOL      0.232834
    120 H54        -5.2350   -1.0040    0.6620 h1        1 MOL      0.050852
    121 H55        -3.9660   -3.5730   -0.3150 h1        1 MOL      0.016764
    122 H56        -5.7640   -4.4580    0.9220 ho        1 MOL      0.428341
    123 H57        -3.4390   -2.2690    1.9410 hc        1 MOL      0.063444
    124 H58        -4.8670   -3.1640    2.5600 hc        1 MOL      0.063444
    125 H59        -3.5640   -4.0330    1.8510 hc        1 MOL      0.063444
    126 N11        -6.8360   -0.9060   -1.1870 n         1 MOL     -0.614513
    127 C39        -7.7130   -0.4990   -2.3080 c3        1 MOL     -0.010254
    128 C40        -8.7720    0.4880   -1.8240 c         1 MOL      0.625083
    129 O19        -8.9630    1.5060   -2.4730 o         1 MOL     -0.552250
    130 C41        -8.3500   -1.7350   -2.9820 c3        1 MOL      0.289941
    131 C42        -9.3310   -1.3360   -4.0740 c3        1 MOL     -0.353505
    132 O20        -9.0040   -2.6080   -2.0480 oh        1 MOL     -0.619571
    133 H60        -7.1750   -1.0010   -0.2470 hn        1 MOL      0.336893
    134 H61        -7.1430    0.0290   -3.0690 h1        1 MOL      0.094309
    135 H62        -7.5590   -2.3530   -3.4130 h1        1 MOL      0.052327
    136 H63        -8.4280   -3.3760   -2.0160 ho        1 MOL      0.411246
    137 H64        -9.0170   -0.4260   -4.5780 hc        1 MOL      0.096210
    138 H65        -9.3290   -2.1150   -4.8290 hc        1 MOL      0.096210
    139 H66       -10.3520   -1.1750   -3.7270 hc        1 MOL      0.096210
    140 N12        -9.5640    0.0700   -0.8360 n         1 MOL     -0.522007
    141 C43       -10.7510    0.7450   -0.4020 c3        1 MOL      0.199624
    142 C44       -10.8390    0.9760    1.1070 c         1 MOL      0.350797
    143 O21       -10.5750    0.0870    1.9510 o         1 MOL     -0.547293
    144 C45       -11.9380   -0.1130   -0.9220 c3        1 MOL     -0.289187
    145 C46       -13.3440    0.4160   -0.8220 c3        1 MOL      0.254010
    146 C47       -14.2780   -0.7680   -1.2420 c3        1 MOL     -0.226160
    147 C48       -15.8010   -0.4140   -0.9320 c3        1 MOL     -0.013014
    148 N13       -16.2620    0.6680   -1.8830 n4        1 MOL     -0.327929
    149 H67        -9.5320   -0.9210   -0.6450 hn        1 MOL      0.297750
    150 H68       -10.8230    1.7200   -0.8680 h1        1 MOL      0.070142
    151 H69       -12.0990   -1.0410   -0.3710 hc        1 MOL      0.095731
    152 H70       -11.7880   -0.3860   -1.9630 hc        1 MOL      0.095731
    153 H71       -13.6160    1.2940   -1.4060 hc        1 MOL     -0.039189
    154 H72       -13.5270    0.7410    0.1990 hc        1 MOL     -0.039189
    155 H73       -14.0600   -1.5310   -0.4940 hc        1 MOL      0.089818
    156 H74       -14.1570   -1.1620   -2.2420 hc        1 MOL      0.089818
    157 H75       -15.8650   -0.0430    0.0860 hx        1 MOL      0.105932
    158 H76       -16.3690   -1.3350   -1.0620 hx        1 MOL      0.105932
    159 H77       -16.0030    0.5270   -2.8440 hn        1 MOL      0.322228
    160 H78       -17.2600    0.7550   -1.9610 hn        1 MOL      0.322228
    161 H79       -15.8190    1.5160   -1.5320 hn        1 MOL      0.322228
    162 N14       -11.3200    2.1000    1.5450 n         1 MOL     -0.085854
    163 C49       -11.4540    2.4970    2.9610 c3        1 MOL      0.170017
    164 C50       -10.1670    2.7650    3.8310 c         1 MOL      0.235378
    165 O22       -10.1570    2.3330    5.0370 o         1 MOL     -0.538663
    166 C51       -12.4140    3.6760    3.0930 c3        1 MOL     -0.028499
    167 C52       -13.8340    3.4190    2.5900 c3        1 MOL     -0.120562
    168 C53       -14.0740    3.9690    1.2000 c         1 MOL      0.635802
    169 O23       -13.2540    3.7610    0.2760 o         1 MOL     -0.688430
    170 O24       -15.0640    4.7030    0.9750 o         1 MOL     -0.688430
    171 H80       -11.6470    2.7750    0.8650 hn        1 MOL      0.114334
    172 H81       -11.9460    1.7220    3.5600 h1        1 MOL      0.031709
    173 H82       -11.9990    4.5690    2.6300 hc        1 MOL      0.038308
    174 H83       -12.5680    3.9190    4.1420 hc        1 MOL      0.038308
    175 H84       -14.5620    3.7390    3.3360 hc        1 MOL      0.011426
    176 H85       -13.9790    2.3330    2.5870 hc        1 MOL      0.011426
    177 N15        -9.1420    3.3890    3.4140 n         1 MOL     -0.193229
    178 C54        -8.7770    4.0370    2.1530 c3        1 MOL     -0.142159
    179 H86        -9.0110    3.3720    1.3220 h1        1 MOL      0.079701
    180 H87        -9.3390    4.9650    2.0440 h1        1 MOL      0.079701
    181 H88        -7.7090    4.2570    2.1530 h1        1 MOL      0.079701
    182 H89        -8.4450    3.4270    4.1470 hn        1 MOL      0.261037
    183 Ca1         4.2300   -3.4540    2.5920 Ca        1 MOL      1.713912
    184 O25         6.6880   -3.5800    3.9740 oh        1 MOL     -0.800360
    185 H90         7.0200   -3.0750    4.7210 ho        1 MOL      0.400735
    186 H91         6.9350   -4.4800    4.1620 ho        1 MOL      0.400735
    187 O26         4.0620   -4.9200    4.9920 oh        1 MOL     -0.800360
    188 H92         3.8260   -4.8990    5.9250 ho        1 MOL      0.400735
    189 H93         4.4820   -5.7650    4.8690 ho        1 MOL      0.400735
    190 O27         3.1060   -1.9960    4.5890 oh        1 MOL     -0.800360
    191 H94         3.6220   -1.2400    4.8870 ho        1 MOL      0.400735
    192 H95         2.1990   -1.7760    4.8150 ho        1 MOL      0.400735
    193 O28         1.9420   -2.2340    1.9450 oh        1 MOL     -0.800360
    194 H96         1.4780   -2.7470    1.2820 ho        1 MOL      0.400735
    195 H97         1.5320   -1.3630    1.9040 ho        1 MOL      0.400735
    196 O29         2.1420   -5.1880    2.8870 oh        1 MOL     -0.800360
    197 H98         1.7480   -5.0370    3.7430 ho        1 MOL      0.400735
    198 H99         1.4210   -5.0200    2.2680 ho        1 MOL      0.400735
@<TRIPOS>BOND
     1    1    2 1   
     2    1    4 1   
     3    1    5 1   
     4    1    6 1   
     5    2    3 2   
     6    2    7 1   
     7    7    8 1   
     8    7   15 1   
     9    8    9 1   
    10    8   11 1   
    11    8   16 1   
    12    9   10 2   
    13    9   19 1   
    14   11   12 1   
    15   11   17 1   
    16   11   18 1   
    17   12   13 1   
    18   12   14 1   
    19   19   20 1   
    20   19   28 1   
    21   20   21 1   
    22   20   23 1   
    23   20   29 1   
    24   21   22 2   
    25   21   41 1   
    26   23   24 1   
    27   23   30 1   
    28   23   31 1   
    29   24   25 1   
    30   24   32 1   
    31   24   33 1   
    32   25   26 1   
    33   25   34 1   
    34   25   35 1   
    35   26   27 1   
    36   26   36 1   
    37   26   37 1   
    38   27   38 1   
    39   27   39 1   
    40   27   40 1   
    41   41   42 1   
    42   41   49 1   
    43   42   43 1   
    44   42   45 1   
    45   42   50 1   
    46   43   44 2   
    47   43   53 1   
    48   45   46 1   
    49   45   51 1   
    50   45   52 1   
    51   46   47 1   
    52   46   48 1   
    53   53   54 1   
    54   53   57 1   
    55   54   55 1   
    56   54   58 1   
    57   54   59 1   
    58   55   56 2   
    59   55   60 1   
    60   60   61 1   
    61   60   68 1   
    62   61   62 1   
    63   61   64 1   
    64   61   69 1   
    65   62   63 2   
    66   62   72 1   
    67   64   65 1   
    68   64   70 1   
    69   64   71 1   
    70   65   66 1   
    71   65   67 1   
    72   72   73 1   
    73   72   76 1   
    74   73   74 1   
    75   73   77 1   
    76   73   78 1   
    77   74   75 2   
    78   74   79 1   
    79   79   80 1   
    80   79   86 1   
    81   80   81 1   
    82   80   83 1   
    83   80   87 1   
    84   81   82 2   
    85   81   93 1   
    86   83   84 1   
    87   83   85 1   
    88   83   88 1   
    89   84   90 1   
    90   84   91 1   
    91   84   92 1   
    92   85   89 1   
    93   93   94 1   
    94   93  101 1   
    95   94   95 1   
    96   94   97 1   
    97   94  102 1   
    98   95   96 2   
    99   95  112 1   
   100   97   98 1   
   101   97   99 1   
   102   97  103 1   
   103   98  100 1   
   104   98  104 1   
   105   98  105 1   
   106   99  106 1   
   107   99  107 1   
   108   99  108 1   
   109  100  109 1   
   110  100  110 1   
   111  100  111 1   
   112  112  113 1   
   113  112  119 1   
   114  113  114 1   
   115  113  116 1   
   116  113  120 1   
   117  114  115 2   
   118  114  126 1   
   119  116  117 1   
   120  116  118 1   
   121  116  121 1   
   122  117  123 1   
   123  117  124 1   
   124  117  125 1   
   125  118  122 1   
   126  126  127 1   
   127  126  133 1   
   128  127  128 1   
   129  127  130 1   
   130  127  134 1   
   131  128  129 2   
   132  128  140 1   
   133  130  131 1   
   134  130  132 1   
   135  130  135 1   
   136  131  137 1   
   137  131  138 1   
   138  131  139 1   
   139  132  136 1   
   140  140  141 1   
   141  140  149 1   
   142  141  142 1   
   143  141  144 1   
   144  141  150 1   
   145  142  143 2   
   146  142  162 1   
   147  144  145 1   
   148  144  151 1   
   149  144  152 1   
   150  145  146 1   
   151  145  153 1   
   152  145  154 1   
   153  146  147 1   
   154  146  155 1   
   155  146  156 1   
   156  147  148 1   
   157  147  157 1   
   158  147  158 1   
   159  148  159 1   
   160  148  160 1   
   161  148  161 1   
   162  162  163 1   
   163  162  171 1   
   164  163  164 1   
   165  163  166 1   
   166  163  172 1   
   167  164  165 2   
   168  164  177 1   
   169  166  167 1   
   170  166  173 1   
   171  166  174 1   
   172  167  168 1   
   173  167  175 1   
   174  167  176 1   
   175  168  169 1   
   176  168  170 1   
   177  177  178 1   
   178  177  182 1   
   179  178  179 1   
   180  178  180 1   
   181  178  181 1   
   182  184  185 1   
   183  184  186 1   
   184  187  188 1   
   185  187  189 1   
   186  190  191 1   
   187  190  192 1   
   188  193  194 1   
   189  193  195 1   
   190  196  197 1   
   191  196  198 1   
@<TRIPOS>SUBSTRUCTURE
     1 MOL         1 TEMP              0 ****  ****    0 ROOT
