@<TRIPOS>MOLECULE
MOL
  189   185     1     0     0
SMALL
resp


@<TRIPOS>ATOM
      1 C1         -5.5230    3.0840    4.0340 c3        1 MOL     -0.509141
      2 C2         -6.1220    2.4030    2.8070 c         1 MOL      0.852264
      3 O1         -5.5030    2.4470    1.7290 o         1 MOL     -0.623607
      4 H1         -5.8670    4.1180    4.0790 hc        1 MOL      0.125707
      5 H2         -5.8390    2.5580    4.9340 hc        1 MOL      0.125707
      6 H3         -4.4350    3.0670    3.9650 hc        1 MOL      0.125707
      7 N1         -7.3130    1.8110    2.7820 n         1 MOL     -0.704451
      8 C3         -7.8010    0.7610    1.8800 c3        1 MOL      0.350092
      9 C4         -6.6250   -0.1680    1.4480 c         1 MOL      0.003356
     10 O2         -6.1460   -0.0800    0.2700 o         1 MOL     -0.336132
     11 C5         -8.6350    1.4690    0.7500 c3        1 MOL     -0.221341
     12 C6         -8.0720    2.7660    0.2060 c         1 MOL      0.804154
     13 O3         -7.2070    2.7460   -0.6930 o         1 MOL     -0.745609
     14 O4         -8.5650    3.8830    0.5490 o         1 MOL     -0.745609
     15 H4         -7.7090    1.8740    3.7090 hn        1 MOL      0.298443
     16 H5         -8.4950    0.1020    2.4090 h1        1 MOL      0.045822
     17 H6         -9.6210    1.7110    1.1640 hc        1 MOL      0.027953
     18 H7         -8.8560    0.7680   -0.0510 hc        1 MOL      0.027953
     19 N2         -6.0170   -0.7940    2.4810 n         1 MOL     -0.250557
     20 C7         -5.0370   -1.8670    2.4650 c3        1 MOL      0.271173
     21 C8         -5.4010   -3.0150    1.6590 c         1 MOL      0.246000
     22 O5         -5.5370   -4.0930    2.1950 o         1 MOL     -0.536200
     23 C9         -3.4880   -1.4340    2.3320 c3        1 MOL      0.371598
     24 C10        -2.4370   -2.4950    2.5500 c3        1 MOL      0.035720
     25 C11        -3.1780   -0.0850    3.0860 c3        1 MOL     -0.188632
     26 C12        -2.5330   -3.1160    3.9030 c3        1 MOL     -0.231167
     27 H8         -6.2900   -0.5520    3.4250 hn        1 MOL      0.215430
     28 H9         -5.1000   -2.2070    3.4980 h1        1 MOL     -0.038499
     29 H10        -3.3550   -1.1640    1.2900 hc        1 MOL     -0.256671
     30 H11        -1.4880   -2.0740    2.2210 hc        1 MOL      0.040507
     31 H12        -2.6580   -3.2910    1.8260 hc        1 MOL      0.040507
     32 H13        -2.0970    0.0500    2.9990 hc        1 MOL      0.004691
     33 H14        -3.6770    0.7740    2.6520 hc        1 MOL      0.004691
     34 H15        -3.5050   -0.1890    4.1230 hc        1 MOL      0.004691
     35 H16        -3.4130   -3.7540    3.9510 hc        1 MOL      0.032765
     36 H17        -1.5960   -3.6740    4.0280 hc        1 MOL      0.032765
     37 H18        -2.5610   -2.3670    4.7020 hc        1 MOL      0.032765
     38 N3         -5.5530   -2.9290    0.3420 n         1 MOL     -0.132693
     39 C13        -6.3670   -3.9090   -0.3610 c3        1 MOL      0.135875
     40 C14        -5.4880   -5.0660   -0.8480 c         1 MOL      0.469454
     41 O6         -5.9230   -6.2270   -0.8520 o         1 MOL     -0.584114
     42 C15        -7.0550   -3.0670   -1.5150 c3        1 MOL     -0.290997
     43 C16        -8.2140   -2.2560   -1.1310 c         1 MOL      0.859488
     44 O7         -8.8130   -2.3420   -0.0320 o         1 MOL     -0.737325
     45 O8         -8.7870   -1.7110   -2.0530 o         1 MOL     -0.737325
     46 H19        -5.2930   -2.0840   -0.1350 hn        1 MOL      0.293274
     47 H20        -7.1490   -4.3780    0.2350 h1        1 MOL      0.040996
     48 H21        -7.3870   -3.7960   -2.2550 hc        1 MOL      0.050616
     49 H22        -6.2780   -2.4300   -1.9250 hc        1 MOL      0.050616
     50 N4         -4.2660   -4.8350   -1.3410 n         1 MOL     -0.463311
     51 C17        -3.5240   -3.6210   -1.5070 c3        1 MOL      0.163914
     52 C18        -2.5020   -3.7660   -2.6800 c         1 MOL      0.592809
     53 O9         -2.2970   -4.8990   -3.1630 o         1 MOL     -0.579739
     54 H23        -3.8300   -5.6590   -1.7210 hn        1 MOL      0.279761
     55 H24        -2.9120   -3.4830   -0.6250 h1        1 MOL     -0.001236
     56 H25        -4.1290   -2.7340   -1.7040 h1        1 MOL     -0.001236
     57 N5         -1.8720   -2.6960   -3.1650 n         1 MOL     -0.567686
     58 C19        -2.2220   -1.1940   -3.0330 c3        1 MOL      0.132356
     59 C20        -2.3150   -0.7830   -1.6110 c         1 MOL      0.175237
     60 O10        -3.4840   -0.5100   -1.2180 o         1 MOL     -0.590869
     61 C21        -3.4070   -0.8590   -3.9540 c3        1 MOL      0.035945
     62 C22        -3.6560    0.6150   -4.1910 c         1 MOL      0.606818
     63 O11        -3.1570    1.4040   -3.3550 o         1 MOL     -0.676507
     64 O12        -4.4380    0.9070   -5.1200 o         1 MOL     -0.676507
     65 H26        -1.0870   -2.8060   -3.8040 hn        1 MOL      0.296468
     66 H27        -1.4070   -0.6470   -3.5140 h1        1 MOL      0.065500
     67 H28        -4.2250   -1.2370   -3.3370 hc        1 MOL     -0.009329
     68 H29        -3.3860   -1.3770   -4.9160 hc        1 MOL     -0.009329
     69 N6         -1.2680   -0.7890   -0.7960 n         1 MOL     -0.050223
     70 C23         0.1860   -1.1240   -1.1290 c3        1 MOL     -0.122285
     71 C24         0.6270   -2.5380   -0.6590 c         1 MOL      0.429272
     72 O13        -0.1090   -3.3250   -0.0120 o         1 MOL     -0.472727
     73 H30        -1.5520   -0.6630    0.1660 hn        1 MOL      0.259552
     74 H31         0.8420   -0.2990   -0.8410 h1        1 MOL      0.087707
     75 H32         0.4220   -1.0350   -2.1860 h1        1 MOL      0.087707
     76 N7          1.7980   -2.9570   -1.1910 n         1 MOL     -0.450604
     77 C25         2.4910   -4.2430   -0.7490 c3        1 MOL      0.031337
     78 C26         3.0000   -4.2730    0.6900 c         1 MOL      0.315334
     79 O14         3.2280   -5.3990    1.1820 o         1 MOL     -0.495735
     80 C27         3.5980   -4.4910   -1.7180 c3        1 MOL     -0.148534
     81 C28         4.9670   -3.8580   -1.4100 c3        1 MOL     -0.051841
     82 C29         5.9950   -3.9610   -2.4670 c         1 MOL      0.586912
     83 N8          7.2150   -4.1360   -2.0400 n         1 MOL     -0.696899
     84 O15         5.7140   -3.8760   -3.6680 o         1 MOL     -0.576712
     85 H33         2.3030   -2.3580   -1.8170 hn        1 MOL      0.278828
     86 H34         1.8290   -5.1080   -0.7650 h1        1 MOL      0.135900
     87 H35         3.2890   -4.3230   -2.7540 hc        1 MOL      0.082190
     88 H36         3.7580   -5.5640   -1.7160 hc        1 MOL      0.082190
     89 H37         5.3480   -4.3950   -0.5360 hc        1 MOL      0.034340
     90 H38         4.9610   -2.8440   -1.0220 hc        1 MOL      0.034340
     91 H39         7.4930   -4.2560   -1.0680 hn        1 MOL      0.326051
     92 H40         7.9250   -4.2220   -2.7550 hn        1 MOL      0.326051
     93 N9          3.0870   -3.0890    1.3080 n         1 MOL      0.016902
     94 C30         3.4680   -2.9450    2.6890 c3        1 MOL     -0.319844
     95 C31         4.8130   -2.1760    2.9910 c         1 MOL      0.695557
     96 O16         5.1690   -2.1330    4.0990 o         1 MOL     -0.552023
     97 C32         2.3460   -2.2600    3.5600 c3        1 MOL      0.168238
     98 C33         1.0080   -3.0210    3.6980 c3        1 MOL     -0.057287
     99 C34         2.0230   -0.8570    3.0890 c3        1 MOL     -0.057287
    100 H41         2.8250   -2.2500    0.8290 hn        1 MOL      0.196917
    101 H42         3.6160   -3.9640    3.0280 h1        1 MOL      0.115471
    102 H43         2.6560   -2.2300    4.6130 hc        1 MOL     -0.004564
    103 H44         0.2980   -2.4580    4.3110 hc        1 MOL      0.011800
    104 H45         0.5850   -3.2800    2.7310 hc        1 MOL      0.011800
    105 H46         1.0980   -3.9290    4.2870 hc        1 MOL      0.011800
    106 H47         2.7120   -0.1880    3.6030 hc        1 MOL      0.011800
    107 H48         2.0860   -0.7780    2.0090 hc        1 MOL      0.011800
    108 H49         1.0420   -0.6720    3.5340 hc        1 MOL      0.011800
    109 N10         5.4550   -1.6520    1.9670 n         1 MOL     -0.510506
    110 C35         6.8430   -1.0770    2.0420 c3        1 MOL      0.008025
    111 C36         6.8040    0.3490    1.6990 c         1 MOL      0.714158
    112 O17         7.6160    1.1150    2.1320 o         1 MOL     -0.581667
    113 C37         7.8820   -1.8700    1.2190 c3        1 MOL     -0.179755
    114 C38         7.9790   -3.3180    1.5430 c         1 MOL      0.575804
    115 N11         8.0170   -3.6610    2.7850 n         1 MOL     -0.687460
    116 O18         7.8370   -4.1190    0.6370 o         1 MOL     -0.553494
    117 H50         5.0380   -1.7490    1.0440 hn        1 MOL      0.226188
    118 H51         7.2820   -1.0970    3.0500 h1        1 MOL      0.060467
    119 H52         8.8650   -1.4070    1.3280 hc        1 MOL      0.091913
    120 H53         7.5560   -1.7570    0.1800 hc        1 MOL      0.091913
    121 H54         8.1540   -2.9380    3.4690 hn        1 MOL      0.363098
    122 H55         8.1200   -4.6420    3.0000 hn        1 MOL      0.363098
    123 N12         5.9020    0.7680    0.7830 n         1 MOL     -0.624912
    124 C39         5.8680    2.0650    0.0840 c3        1 MOL      0.333789
    125 C40         4.4560    2.6760   -0.0360 c         1 MOL      0.349710
    126 O19         3.4200    1.9930    0.1920 o         1 MOL     -0.478871
    127 C41         6.4320    1.7850   -1.3250 c3        1 MOL     -0.088225
    128 C42         7.7840    1.1230   -1.4830 ca        1 MOL     -0.012078
    129 C43         7.8640   -0.1500   -1.8670 ca        1 MOL     -0.090153
    130 C44         8.9060    1.8690   -1.1970 ca        1 MOL     -0.090153
    131 C45         9.1030   -0.8500   -1.8590 ca        1 MOL     -0.262702
    132 C46        10.1430    1.3120   -1.2550 ca        1 MOL     -0.262702
    133 C47        10.2450   -0.0730   -1.6270 ca        1 MOL      0.320189
    134 O20        11.4920   -0.7150   -1.6790 oh        1 MOL     -0.536578
    135 H56         5.3290    0.0610    0.3430 hn        1 MOL      0.269761
    136 H57         6.4920    2.7950    0.6090 h1        1 MOL      0.010360
    137 H58         6.5010    2.6900   -1.9220 hc        1 MOL      0.051564
    138 H59         5.6940    1.1970   -1.8810 hc        1 MOL      0.051564
    139 H60         6.9700   -0.7080   -2.1220 ha        1 MOL      0.109086
    140 H61         8.7560    2.9240   -1.0110 ha        1 MOL      0.109086
    141 H62         9.1580   -1.9250   -1.9830 ha        1 MOL      0.133822
    142 H63        11.0680    1.8440   -1.1250 ha        1 MOL      0.133822
    143 H64        12.2060   -0.1380   -1.4020 ho        1 MOL      0.378335
    144 N13         4.4230    3.9440   -0.4740 n         1 MOL     -0.427793
    145 C48         3.3050    4.8310   -0.9480 c3        1 MOL     -0.038425
    146 C49         2.1430    5.1770    0.1100 c         1 MOL      0.576646
    147 O21         1.5060    6.1810    0.0420 o         1 MOL     -0.505264
    148 C50         2.7280    4.3460   -2.3490 c3        1 MOL      0.166703
    149 C51         3.6330    4.6590   -3.5560 c3        1 MOL     -0.394809
    150 C52         3.1240    6.0010   -4.1860 c         1 MOL      0.750514
    151 O22         2.5500    6.9070   -3.4700 o         1 MOL     -0.719225
    152 O23         3.3240    6.2890   -5.3860 o         1 MOL     -0.719225
    153 H65         5.3520    4.3460   -0.4640 hn        1 MOL      0.277973
    154 H66         3.8510    5.7520   -1.1730 h1        1 MOL      0.078373
    155 H67         1.7070    4.6970   -2.5010 hc        1 MOL      0.049552
    156 H68         2.7790    3.2630   -2.3090 hc        1 MOL      0.049552
    157 H69         3.5030    3.8610   -4.2870 hc        1 MOL      0.046753
    158 H70         4.6980    4.6350   -3.3200 hc        1 MOL      0.046753
    159 N14         1.9750    4.3390    1.0910 n         1 MOL     -0.600566
    160 C53         0.7740    4.3110    2.0030 c3        1 MOL      0.016634
    161 C54         1.0560    4.9810    3.4020 c         1 MOL      0.473968
    162 O24         0.2630    4.8530    4.3480 o         1 MOL     -0.533836
    163 C55         0.1840    2.9330    2.1270 c3        1 MOL     -0.125602
    164 C56        -0.1180    2.1640    0.7830 c3        1 MOL      0.442692
    165 C57        -1.3840    2.6630    0.0470 c         1 MOL      0.494893
    166 O25        -1.4480    3.7220   -0.5850 o         1 MOL     -0.632190
    167 O26        -2.4000    1.9670    0.0350 o         1 MOL     -0.632190
    168 H71         2.5600    3.5190    1.0380 hn        1 MOL      0.284196
    169 H72         0.0190    4.9840    1.6070 h1        1 MOL      0.136942
    170 H73        -0.7070    3.0110    2.7560 hc        1 MOL      0.040329
    171 H74         0.8710    2.3320    2.7260 hc        1 MOL      0.040329
    172 H75        -0.2180    1.1290    1.0900 hc        1 MOL     -0.177488
    173 H76         0.6290    2.4080    0.0360 hc        1 MOL     -0.177488
    174 N15         2.2240    5.6430    3.6270 n         1 MOL     -0.274953
    175 C58         2.6080    6.4680    4.7990 c3        1 MOL     -0.207748
    176 H77         1.9020    7.2900    4.9110 h1        1 MOL      0.096392
    177 H78         2.5940    5.8520    5.6980 h1        1 MOL      0.096392
    178 H79         3.6100    6.8700    4.6480 h1        1 MOL      0.096392
    179 H80         2.7530    5.7530    2.7700 hn        1 MOL      0.239658
    180 Ca1        -4.7270    1.8180   -1.0860 Ca        1 MOL      1.749685
    181 O27        -5.5020    3.2370   -3.3140 oh        1 MOL     -0.818270
    182 H81        -5.2330    2.8590   -4.1540 ho        1 MOL      0.392500
    183 H82        -5.6870    4.1570   -3.5190 ho        1 MOL      0.392500
    184 O28        -4.2620    4.3920   -0.2040 oh        1 MOL     -0.818270
    185 H83        -4.4190    4.6060    0.7200 ho        1 MOL      0.392500
    186 H84        -3.3190    4.2620   -0.2540 ho        1 MOL      0.392500
    187 O29        -6.3550    0.3220   -2.6450 oh        1 MOL     -0.818270
    188 H85        -6.9230   -0.3660   -2.3100 ho        1 MOL      0.392500
    189 H86        -6.7220    0.5400   -3.5030 ho        1 MOL      0.392500
@<TRIPOS>BOND
     1    1    2 1   
     2    1    4 1   
     3    1    5 1   
     4    1    6 1   
     5    2    3 2   
     6    2    7 1   
     7    7    8 1   
     8    7   15 1   
     9    8    9 1   
    10    8   11 1   
    11    8   16 1   
    12    9   10 2   
    13    9   19 1   
    14   11   12 1   
    15   11   17 1   
    16   11   18 1   
    17   12   13 1   
    18   12   14 1   
    19   19   20 1   
    20   19   27 1   
    21   20   21 1   
    22   20   23 1   
    23   20   28 1   
    24   21   22 2   
    25   21   38 1   
    26   23   24 1   
    27   23   25 1   
    28   23   29 1   
    29   24   26 1   
    30   24   30 1   
    31   24   31 1   
    32   25   32 1   
    33   25   33 1   
    34   25   34 1   
    35   26   35 1   
    36   26   36 1   
    37   26   37 1   
    38   38   39 1   
    39   38   46 1   
    40   39   40 1   
    41   39   42 1   
    42   39   47 1   
    43   40   41 2   
    44   40   50 1   
    45   42   43 1   
    46   42   48 1   
    47   42   49 1   
    48   43   44 1   
    49   43   45 1   
    50   50   51 1   
    51   50   54 1   
    52   51   52 1   
    53   51   55 1   
    54   51   56 1   
    55   52   53 2   
    56   52   57 1   
    57   57   58 1   
    58   57   65 1   
    59   58   59 1   
    60   58   61 1   
    61   58   66 1   
    62   59   60 2   
    63   59   69 1   
    64   61   62 1   
    65   61   67 1   
    66   61   68 1   
    67   62   63 1   
    68   62   64 1   
    69   69   70 1   
    70   69   73 1   
    71   70   71 1   
    72   70   74 1   
    73   70   75 1   
    74   71   72 2   
    75   71   76 1   
    76   76   77 1   
    77   76   85 1   
    78   77   78 1   
    79   77   80 1   
    80   77   86 1   
    81   78   79 2   
    82   78   93 1   
    83   80   81 1   
    84   80   87 1   
    85   80   88 1   
    86   81   82 1   
    87   81   89 1   
    88   81   90 1   
    89   82   83 1   
    90   82   84 2   
    91   83   91 1   
    92   83   92 1   
    93   93   94 1   
    94   93  100 1   
    95   94   95 1   
    96   94   97 1   
    97   94  101 1   
    98   95   96 2   
    99   95  109 1   
   100   97   98 1   
   101   97   99 1   
   102   97  102 1   
   103   98  103 1   
   104   98  104 1   
   105   98  105 1   
   106   99  106 1   
   107   99  107 1   
   108   99  108 1   
   109  109  110 1   
   110  109  117 1   
   111  110  111 1   
   112  110  113 1   
   113  110  118 1   
   114  111  112 2   
   115  111  123 1   
   116  113  114 1   
   117  113  119 1   
   118  113  120 1   
   119  114  115 1   
   120  114  116 2   
   121  115  121 1   
   122  115  122 1   
   123  123  124 1   
   124  123  135 1   
   125  124  125 1   
   126  124  127 1   
   127  124  136 1   
   128  125  126 2   
   129  125  144 1   
   130  127  128 1   
   131  127  137 1   
   132  127  138 1   
   133  128  129 ar  
   134  128  130 ar  
   135  129  131 ar  
   136  129  139 1   
   137  130  132 ar  
   138  130  140 1   
   139  131  133 ar  
   140  131  141 1   
   141  132  133 ar  
   142  132  142 1   
   143  133  134 1   
   144  134  143 1   
   145  144  145 1   
   146  144  153 1   
   147  145  146 1   
   148  145  148 1   
   149  145  154 1   
   150  146  147 2   
   151  146  159 1   
   152  148  149 1   
   153  148  155 1   
   154  148  156 1   
   155  149  150 1   
   156  149  157 1   
   157  149  158 1   
   158  150  151 1   
   159  150  152 1   
   160  159  160 1   
   161  159  168 1   
   162  160  161 1   
   163  160  163 1   
   164  160  169 1   
   165  161  162 2   
   166  161  174 1   
   167  163  164 1   
   168  163  170 1   
   169  163  171 1   
   170  164  165 1   
   171  164  172 1   
   172  164  173 1   
   173  165  166 1   
   174  165  167 1   
   175  174  175 1   
   176  174  179 1   
   177  175  176 1   
   178  175  177 1   
   179  175  178 1   
   180  181  182 1   
   181  181  183 1   
   182  184  185 1   
   183  184  186 1   
   184  187  188 1   
   185  187  189 1   
@<TRIPOS>SUBSTRUCTURE
     1 MOL         1 TEMP              0 ****  ****    0 ROOT
