@<TRIPOS>MOLECULE
MOL
  192   187     1     0     0
SMALL
resp


@<TRIPOS>ATOM
      1 C1          9.1790    0.8110    1.7850 c3        1 MOL     -0.416018
      2 C2          7.9790    0.3840    0.9120 c         1 MOL      0.722786
      3 O1          6.8160    0.3240    1.4040 o         1 MOL     -0.630645
      4 H1          9.0350    0.4470    2.8030 hc        1 MOL      0.104485
      5 H2         10.0970    0.3880    1.3760 hc        1 MOL      0.104485
      6 H3          9.2530    1.8980    1.7960 hc        1 MOL      0.104485
      7 N1          8.3190    0.1660   -0.3550 n         1 MOL     -0.551961
      8 C3          7.3520    0.0310   -1.4610 c3        1 MOL      0.057007
      9 C4          6.6940   -1.3360   -1.5630 c         1 MOL      0.299964
     10 O2          6.4480   -1.8150   -2.6540 o         1 MOL     -0.398712
     11 C5          7.9270    0.6050   -2.7550 c3        1 MOL     -0.440809
     12 C6          9.0250   -0.3450   -3.3240 c         1 MOL      0.799607
     13 O3          9.4210   -0.2170   -4.4670 o         1 MOL     -0.640215
     14 O4          9.5960   -1.2030   -2.6600 o         1 MOL     -0.640215
     15 H4          9.2980    0.2570   -0.5560 hn        1 MOL      0.320929
     16 H5          6.4660    0.6590   -1.3060 h1        1 MOL      0.173893
     17 H6          8.3970    1.5490   -2.4750 hc        1 MOL      0.132437
     18 H7          7.1920    0.9250   -3.4980 hc        1 MOL      0.132437
     19 N2          6.4950   -1.9950   -0.4220 n         1 MOL     -0.079828
     20 C7          6.0550   -3.4100   -0.2650 c3        1 MOL      0.102203
     21 C8          4.5430   -3.6560   -0.5110 c         1 MOL      0.252796
     22 O5          4.1690   -4.5510   -1.2490 o         1 MOL     -0.495577
     23 C9          6.3430   -3.9670    1.1680 c3        1 MOL      0.089076
     24 C10         7.7130   -3.6220    1.6720 c3        1 MOL     -0.048413
     25 C11         8.0680   -4.6570    2.7050 c3        1 MOL      0.016432
     26 C12         9.4600   -4.3890    3.2230 c3        1 MOL      0.102954
     27 N3          9.8120   -5.2490    4.3390 n4        1 MOL     -0.173230
     28 H8          6.7750   -1.5580    0.4420 hn        1 MOL     -0.032698
     29 H9          6.6560   -4.0610   -0.8980 h1        1 MOL      0.063425
     30 H10         6.2600   -5.0490    1.0950 hc        1 MOL     -0.014157
     31 H11         5.6250   -3.6730    1.9280 hc        1 MOL     -0.014157
     32 H12         7.7370   -2.5980    2.0410 hc        1 MOL      0.034448
     33 H13         8.4610   -3.7650    0.8930 hc        1 MOL      0.034448
     34 H14         8.0590   -5.7020    2.3800 hc        1 MOL      0.012108
     35 H15         7.3320   -4.5090    3.4900 hc        1 MOL      0.012108
     36 H16         9.6610   -3.3430    3.4640 hx        1 MOL      0.043345
     37 H17        10.1550   -4.6330    2.4240 hx        1 MOL      0.043345
     38 H18         9.6770   -6.2000    4.0390 hn        1 MOL      0.207702
     39 H19        10.8090   -5.2010    4.4700 hn        1 MOL      0.207702
     40 H20         9.3390   -5.0870    5.2190 hn        1 MOL      0.207702
     41 N4          3.6720   -2.8390    0.0000 n         1 MOL     -0.195991
     42 C13         3.7040   -1.6460    0.9070 c3        1 MOL      0.003294
     43 C14         3.7320   -0.3160    0.1350 c         1 MOL      0.313918
     44 O6          3.6270   -0.2210   -1.0860 o         1 MOL     -0.357374
     45 C15         2.4090   -1.6870    1.7520 c3        1 MOL     -0.530538
     46 C16         1.1160   -1.8870    0.9000 c         1 MOL      0.817712
     47 O7          0.4690   -0.8330    0.5980 o         1 MOL     -0.693281
     48 O8          0.8280   -3.0360    0.4230 o         1 MOL     -0.693281
     49 H21         2.7750   -3.2410   -0.2170 hn        1 MOL      0.309671
     50 H22         4.5970   -1.6240    1.5250 h1        1 MOL      0.160372
     51 H23         2.4250   -0.7490    2.3010 hc        1 MOL      0.105492
     52 H24         2.5800   -2.5340    2.4230 hc        1 MOL      0.105492
     53 N5          3.9170    0.7880    0.8980 n         1 MOL     -0.367154
     54 C17         3.9950    2.1420    0.3750 c3        1 MOL      0.097875
     55 C18         2.7910    2.6440   -0.4080 c         1 MOL      0.478527
     56 O9          1.7490    1.9510   -0.5620 o         1 MOL     -0.497013
     57 H25         4.2370    0.7440    1.8620 hn        1 MOL      0.303354
     58 H26         4.8160    2.1590   -0.3420 h1        1 MOL      0.010255
     59 H27         4.0560    2.9030    1.1540 h1        1 MOL      0.010255
     60 N6          2.9250    3.8790   -0.9270 n         1 MOL     -0.310542
     61 C19         1.8760    4.6920   -1.5970 c3        1 MOL      0.160282
     62 C20         2.1870    6.2060   -1.5990 c         1 MOL      0.482870
     63 O10         3.3370    6.6530   -1.4220 o         1 MOL     -0.529937
     64 C21         1.8460    4.2550   -3.0860 c3        1 MOL     -0.294764
     65 C22         1.1550    2.9260   -3.2090 c         1 MOL      0.594995
     66 O11        -0.0220    2.6990   -2.6990 o         1 MOL     -0.622682
     67 O12         1.8130    2.0350   -3.7720 o         1 MOL     -0.622682
     68 H28         3.7750    4.3700   -0.7200 hn        1 MOL      0.219258
     69 H29         0.9060    4.5240   -1.1160 h1        1 MOL      0.017357
     70 H30         2.8650    4.1450   -3.4400 hc        1 MOL      0.105328
     71 H31         1.1880    4.9440   -3.6100 hc        1 MOL      0.105328
     72 N7          1.1990    7.0980   -1.8980 n         1 MOL     -0.506951
     73 C23        -0.2180    6.8760   -2.1700 c3        1 MOL      0.081316
     74 C24        -1.0380    6.4860   -0.8710 c         1 MOL      0.572699
     75 O13        -0.6020    6.9000    0.2100 o         1 MOL     -0.513517
     76 H32         1.6080    7.9990   -2.0430 hn        1 MOL      0.325560
     77 H33        -0.2830    6.0840   -2.9290 h1        1 MOL      0.043693
     78 H34        -0.7490    7.7500   -2.5360 h1        1 MOL      0.043693
     79 N8         -2.1100    5.6550   -0.9110 n         1 MOL     -0.641402
     80 C25        -2.6940    5.1060    0.3560 c3        1 MOL      0.036742
     81 C26        -1.8850    3.8220    0.7130 c         1 MOL      0.713650
     82 O14        -1.3280    3.1160   -0.0970 o         1 MOL     -0.548587
     83 C27        -4.2070    4.7560    0.0740 c3        1 MOL      0.258804
     84 C28        -5.0210    4.2230    1.2700 c3        1 MOL     -0.475365
     85 O15        -4.3320    3.8210   -0.9730 oh        1 MOL     -0.550725
     86 H35        -2.4840    5.3400   -1.7900 hn        1 MOL      0.325113
     87 H36        -2.5620    5.7950    1.1870 h1        1 MOL      0.077781
     88 H37        -4.8260    5.5990   -0.2550 h1        1 MOL      0.044400
     89 H38        -5.1710    3.9230   -1.4150 ho        1 MOL      0.409362
     90 H39        -4.6900    3.1940    1.4390 hc        1 MOL      0.123697
     91 H40        -4.8280    4.7740    2.1850 hc        1 MOL      0.123697
     92 H41        -6.0390    4.2680    0.8690 hc        1 MOL      0.123697
     93 N9         -1.8840    3.5850    2.0850 n         1 MOL     -0.423440
     94 C29        -1.1380    2.5610    2.8360 c3        1 MOL     -0.028043
     95 C30        -1.4370    1.1180    2.4660 c         1 MOL      0.571182
     96 O16        -1.8420    0.7250    1.3690 o         1 MOL     -0.599432
     97 C31         0.3700    2.9280    2.8750 c3        1 MOL      0.121393
     98 C32         0.4710    4.2100    3.6700 c3        1 MOL      0.021817
     99 C33         1.2800    1.8710    3.5280 c3        1 MOL     -0.606321
    100 C34         1.7720    5.0150    3.5560 c3        1 MOL     -0.106854
    101 H42        -2.3810    4.1830    2.7310 hn        1 MOL      0.256299
    102 H43        -1.5130    2.7070    3.8520 h1        1 MOL      0.039140
    103 H44         0.6570    3.0710    1.8390 hc        1 MOL      0.065131
    104 H45         0.2780    3.9780    4.7220 hc        1 MOL     -0.005863
    105 H46        -0.2180    4.9320    3.2350 hc        1 MOL     -0.005863
    106 H47         1.2090    0.8570    3.1380 hc        1 MOL      0.167828
    107 H48         2.3450    2.1080    3.4100 hc        1 MOL      0.167828
    108 H49         0.9830    1.7250    4.5680 hc        1 MOL      0.167828
    109 H50         2.6020    4.5880    4.1130 hc        1 MOL      0.030946
    110 H51         1.9480    5.1070    2.4840 hc        1 MOL      0.030946
    111 H52         1.5610    5.9710    4.0430 hc        1 MOL      0.030946
    112 N10        -1.3460    0.3330    3.5690 n         1 MOL     -0.618237
    113 C35        -1.5160   -1.1770    3.5020 c3        1 MOL     -0.007335
    114 C36        -2.9900   -1.6930    3.4710 c         1 MOL      0.651900
    115 O17        -3.2290   -2.7310    4.0670 o         1 MOL     -0.568644
    116 C37        -0.6370   -1.9120    4.5100 c3        1 MOL      0.250166
    117 C38        -0.5950   -1.3390    5.9250 c3        1 MOL     -0.200246
    118 O18         0.7040   -1.6870    4.1980 oh        1 MOL     -0.542410
    119 H53        -1.2070    0.7620    4.4700 hn        1 MOL      0.362747
    120 H54        -1.1910   -1.4830    2.5030 h1        1 MOL      0.108409
    121 H55        -0.8670   -2.9740    4.6200 h1        1 MOL      0.059197
    122 H56         1.1660   -2.5040    4.3950 ho        1 MOL      0.378956
    123 H57        -1.6230   -1.1960    6.2290 hc        1 MOL      0.043102
    124 H58        -0.2240   -2.0130    6.7000 hc        1 MOL      0.043102
    125 H59        -0.1100   -0.3760    6.0640 hc        1 MOL      0.043102
    126 N11        -3.8530   -0.9860    2.7490 n         1 MOL     -0.546765
    127 C39        -5.2230   -1.5470    2.4140 c3        1 MOL     -0.005787
    128 C40        -5.5220   -1.2010    0.9130 c         1 MOL      0.661094
    129 O19        -4.8940   -0.3580    0.2670 o         1 MOL     -0.463614
    130 C41        -6.3840   -1.0660    3.3090 c3        1 MOL      0.282074
    131 C42        -6.6700    0.4130    3.1080 c3        1 MOL     -0.481387
    132 O20        -7.5580   -1.7030    2.9430 oh        1 MOL     -0.702821
    133 H60        -3.5000   -0.2220    2.1930 hn        1 MOL      0.353455
    134 H61        -5.1870   -2.6310    2.4330 h1        1 MOL      0.108606
    135 H62        -6.2050   -1.2880    4.3570 h1        1 MOL      0.062100
    136 H63        -8.2440   -1.6830    3.6050 ho        1 MOL      0.445886
    137 H64        -5.8710    0.9670    3.5970 hc        1 MOL      0.129136
    138 H65        -6.6370    0.7220    2.0650 hc        1 MOL      0.129136
    139 H66        -7.6460    0.6090    3.5540 hc        1 MOL      0.129136
    140 N12        -6.5790   -1.9050    0.4190 n         1 MOL     -0.876826
    141 C43        -7.0310   -1.7870   -1.0120 c3        1 MOL      0.488702
    142 C44        -5.9020   -1.8270   -2.0190 c         1 MOL      0.257025
    143 O21        -5.9100   -0.9260   -2.8550 o         1 MOL     -0.492816
    144 C45        -8.0540   -0.6200   -1.1910 c3        1 MOL     -0.450284
    145 C46        -9.2400   -0.6600   -0.1970 c3        1 MOL      0.075842
    146 C47       -10.1990   -1.8370   -0.2320 c3        1 MOL     -0.321939
    147 C48       -10.9040   -2.1900    1.0740 c3        1 MOL      0.196641
    148 N13       -12.0740   -1.2700    1.3380 n4        1 MOL     -0.240069
    149 H67        -7.2100   -2.3440    1.0730 hn        1 MOL      0.422165
    150 H68        -7.5270   -2.7130   -1.3100 h1        1 MOL      0.000546
    151 H69        -8.4720   -0.6450   -2.2010 hc        1 MOL      0.164027
    152 H70        -7.5800    0.3540   -1.0950 hc        1 MOL      0.164027
    153 H71        -9.7370    0.3140   -0.2640 hc        1 MOL      0.024526
    154 H72        -8.8560   -0.6260    0.8220 hc        1 MOL      0.024526
    155 H73        -9.5300   -2.6880   -0.3300 hc        1 MOL      0.124101
    156 H74       -10.9310   -1.6750   -1.0190 hc        1 MOL      0.124101
    157 H75       -10.1590   -2.0620    1.8630 hx        1 MOL      0.035537
    158 H76       -11.2280   -3.2230    1.1200 hx        1 MOL      0.035537
    159 H77       -12.5910   -1.4690    2.1920 hn        1 MOL      0.212874
    160 H78       -11.8130   -0.3070    1.5170 hn        1 MOL      0.212874
    161 H79       -12.7300   -1.3370    0.5690 hn        1 MOL      0.212874
    162 N14        -4.9550   -2.7380   -1.8870 n         1 MOL     -0.350703
    163 C49        -3.6680   -2.7210   -2.5810 c3        1 MOL      0.421798
    164 C50        -2.3980   -2.4950   -1.6300 c         1 MOL      0.122671
    165 O22        -1.7900   -1.4530   -1.6730 o         1 MOL     -0.468002
    166 C51        -3.5960   -3.8870   -3.5180 c3        1 MOL     -0.005148
    167 C52        -4.7450   -4.2100   -4.4260 c3        1 MOL     -0.130589
    168 C53        -4.5080   -5.4070   -5.3760 c         1 MOL      0.633729
    169 O23        -4.8040   -6.5890   -4.9280 o         1 MOL     -0.605845
    170 O24        -4.1290   -5.1830   -6.5620 o         1 MOL     -0.605845
    171 H80        -5.1520   -3.6000   -1.3970 hn        1 MOL      0.260220
    172 H81        -3.6110   -1.8420   -3.2260 h1        1 MOL      0.062463
    173 H82        -3.4180   -4.8160   -2.9790 hc        1 MOL      0.014864
    174 H83        -2.7300   -3.7420   -4.1550 hc        1 MOL      0.014864
    175 H84        -4.8860   -3.3090   -5.0350 hc        1 MOL     -0.004968
    176 H85        -5.6020   -4.5200   -3.8220 hc        1 MOL     -0.004968
    177 N15        -1.9550   -3.3940   -0.8160 n         1 MOL     -0.156410
    178 C54        -2.4590   -4.7400   -0.3750 c3        1 MOL     -0.158276
    179 H86        -2.9060   -5.2570   -1.2240 h1        1 MOL      0.071923
    180 H87        -1.6280   -5.3300    0.0130 h1        1 MOL      0.071923
    181 H88        -3.2080   -4.6090    0.4060 h1        1 MOL      0.071923
    182 H89        -1.2070   -2.9840   -0.2700 hn        1 MOL      0.286050
    183 Ca1        -0.5410    0.7450   -1.0710 Ca        1 MOL      1.696126
    184 O25        -1.3440    0.7280   -3.6340 oh        1 MOL     -0.856840
    185 H90        -1.6310    0.2850   -4.4400 ho        1 MOL      0.396629
    186 H91        -0.8890    1.5130   -3.9570 ho        1 MOL      0.396629
    187 O26         1.4270   -0.3280   -2.6280 oh        1 MOL     -0.856840
    188 H92         2.2760   -0.3270   -2.1850 ho        1 MOL      0.396629
    189 H93         1.4730    0.4000   -3.2370 ho        1 MOL      0.396629
    190 O27        -3.2250    1.2700   -1.3150 oh        1 MOL     -0.856840
    191 H94        -3.7780    2.0410   -1.1990 ho        1 MOL      0.396629
    192 H95        -3.7510    0.5450   -0.9750 ho        1 MOL      0.396629
@<TRIPOS>BOND
     1    1    2 1   
     2    1    4 1   
     3    1    5 1   
     4    1    6 1   
     5    2    3 2   
     6    2    7 1   
     7    7    8 1   
     8    7   15 1   
     9    8    9 1   
    10    8   11 1   
    11    8   16 1   
    12    9   10 2   
    13    9   19 1   
    14   11   12 1   
    15   11   17 1   
    16   11   18 1   
    17   12   13 1   
    18   12   14 1   
    19   19   20 1   
    20   19   28 1   
    21   20   21 1   
    22   20   23 1   
    23   20   29 1   
    24   21   22 2   
    25   21   41 1   
    26   23   24 1   
    27   23   30 1   
    28   23   31 1   
    29   24   25 1   
    30   24   32 1   
    31   24   33 1   
    32   25   26 1   
    33   25   34 1   
    34   25   35 1   
    35   26   27 1   
    36   26   36 1   
    37   26   37 1   
    38   27   38 1   
    39   27   39 1   
    40   27   40 1   
    41   41   42 1   
    42   41   49 1   
    43   42   43 1   
    44   42   45 1   
    45   42   50 1   
    46   43   44 2   
    47   43   53 1   
    48   45   46 1   
    49   45   51 1   
    50   45   52 1   
    51   46   47 1   
    52   46   48 1   
    53   53   54 1   
    54   53   57 1   
    55   54   55 1   
    56   54   58 1   
    57   54   59 1   
    58   55   56 2   
    59   55   60 1   
    60   60   61 1   
    61   60   68 1   
    62   61   62 1   
    63   61   64 1   
    64   61   69 1   
    65   62   63 2   
    66   62   72 1   
    67   64   65 1   
    68   64   70 1   
    69   64   71 1   
    70   65   66 1   
    71   65   67 1   
    72   72   73 1   
    73   72   76 1   
    74   73   74 1   
    75   73   77 1   
    76   73   78 1   
    77   74   75 2   
    78   74   79 1   
    79   79   80 1   
    80   79   86 1   
    81   80   81 1   
    82   80   83 1   
    83   80   87 1   
    84   81   82 2   
    85   81   93 1   
    86   83   84 1   
    87   83   85 1   
    88   83   88 1   
    89   84   90 1   
    90   84   91 1   
    91   84   92 1   
    92   85   89 1   
    93   93   94 1   
    94   93  101 1   
    95   94   95 1   
    96   94   97 1   
    97   94  102 1   
    98   95   96 2   
    99   95  112 1   
   100   97   98 1   
   101   97   99 1   
   102   97  103 1   
   103   98  100 1   
   104   98  104 1   
   105   98  105 1   
   106   99  106 1   
   107   99  107 1   
   108   99  108 1   
   109  100  109 1   
   110  100  110 1   
   111  100  111 1   
   112  112  113 1   
   113  112  119 1   
   114  113  114 1   
   115  113  116 1   
   116  113  120 1   
   117  114  115 2   
   118  114  126 1   
   119  116  117 1   
   120  116  118 1   
   121  116  121 1   
   122  117  123 1   
   123  117  124 1   
   124  117  125 1   
   125  118  122 1   
   126  126  127 1   
   127  126  133 1   
   128  127  128 1   
   129  127  130 1   
   130  127  134 1   
   131  128  129 2   
   132  128  140 1   
   133  130  131 1   
   134  130  132 1   
   135  130  135 1   
   136  131  137 1   
   137  131  138 1   
   138  131  139 1   
   139  132  136 1   
   140  140  141 1   
   141  140  149 1   
   142  141  142 1   
   143  141  144 1   
   144  141  150 1   
   145  142  143 2   
   146  142  162 1   
   147  144  145 1   
   148  144  151 1   
   149  144  152 1   
   150  145  146 1   
   151  145  153 1   
   152  145  154 1   
   153  146  147 1   
   154  146  155 1   
   155  146  156 1   
   156  147  148 1   
   157  147  157 1   
   158  147  158 1   
   159  148  159 1   
   160  148  160 1   
   161  148  161 1   
   162  162  163 1   
   163  162  171 1   
   164  163  164 1   
   165  163  166 1   
   166  163  172 1   
   167  164  165 2   
   168  164  177 1   
   169  166  167 1   
   170  166  173 1   
   171  166  174 1   
   172  167  168 1   
   173  167  175 1   
   174  167  176 1   
   175  168  169 1   
   176  168  170 1   
   177  177  178 1   
   178  177  182 1   
   179  178  179 1   
   180  178  180 1   
   181  178  181 1   
   182  184  185 1   
   183  184  186 1   
   184  187  188 1   
   185  187  189 1   
   186  190  191 1   
   187  190  192 1   
@<TRIPOS>SUBSTRUCTURE
     1 MOL         1 TEMP              0 ****  ****    0 ROOT
