@<TRIPOS>MOLECULE
MOL
  182   178     1     0     0
SMALL
resp


@<TRIPOS>ATOM
      1 C1          0.3020   -3.2420    6.5600 c3        1 MOL     -0.358011
      2 C2          0.2530   -3.1960    5.0500 c         1 MOL      0.774298
      3 O1         -0.7360   -2.7730    4.4000 o         1 MOL     -0.620044
      4 H1         -0.6440   -2.8830    6.9650 hc        1 MOL      0.104374
      5 H2          0.4720   -4.2670    6.8880 hc        1 MOL      0.104374
      6 H3          1.1130   -2.6060    6.9160 hc        1 MOL      0.104374
      7 N1          1.3370   -3.6130    4.3520 n         1 MOL     -0.669007
      8 C3          1.5460   -3.4200    2.9620 c3        1 MOL      0.092398
      9 C4          1.3030   -4.7520    2.1990 c         1 MOL      0.634853
     10 O2          1.1630   -5.8440    2.7130 o         1 MOL     -0.545861
     11 C5          2.9810   -2.9160    2.6720 c3        1 MOL     -0.123639
     12 C6          3.0660   -1.9470    1.4940 c         1 MOL      0.505184
     13 O3          3.7700   -0.9290    1.4790 o         1 MOL     -0.630157
     14 O4          2.3630   -2.1670    0.4960 o         1 MOL     -0.630157
     15 H4          2.1300   -4.0210    4.8180 hn        1 MOL      0.330550
     16 H5          0.9130   -2.6200    2.5860 h1        1 MOL      0.004182
     17 H6          3.5010   -3.8550    2.4450 hc        1 MOL      0.069015
     18 H7          3.3820   -2.4060    3.5450 hc        1 MOL      0.069015
     19 N2          1.3600   -4.7290    0.8410 n         1 MOL     -0.391582
     20 C7          1.2580   -5.8230   -0.1170 c3        1 MOL     -0.009013
     21 C8          2.3810   -5.8110   -1.1310 c         1 MOL      0.511351
     22 O5          2.7450   -6.8510   -1.7120 o         1 MOL     -0.540006
     23 C9         -0.1530   -5.8050   -0.8250 c3        1 MOL     -0.181077
     24 C10        -0.4840   -4.5550   -1.7090 c3        1 MOL      0.143782
     25 C11        -1.8820   -4.5860   -2.3720 c3        1 MOL     -0.078495
     26 C12        -2.1610   -3.2320   -3.0650 c3        1 MOL      0.078185
     27 N3         -3.4820   -3.1870   -3.8090 n4        1 MOL     -0.291591
     28 H8          1.3250   -3.7880    0.4840 hn        1 MOL      0.183962
     29 H9          1.2970   -6.7810    0.3960 h1        1 MOL      0.136384
     30 H10        -0.8540   -5.9120    0.0070 hc        1 MOL      0.061024
     31 H11        -0.2880   -6.6230   -1.5300 hc        1 MOL      0.061024
     32 H12         0.2160   -4.4770   -2.5340 hc        1 MOL     -0.007577
     33 H13        -0.3080   -3.6810   -1.0920 hc        1 MOL     -0.007577
     34 H14        -2.6480   -4.7750   -1.6270 hc        1 MOL      0.035917
     35 H15        -1.9150   -5.3870   -3.1050 hc        1 MOL      0.035917
     36 H16        -1.4900   -3.1600   -3.9240 hx        1 MOL      0.036285
     37 H17        -2.0060   -2.4180   -2.3470 hx        1 MOL      0.036285
     38 H18        -3.6930   -4.1400   -4.0780 hn        1 MOL      0.268641
     39 H19        -4.2000   -3.0620   -3.1150 hn        1 MOL      0.268641
     40 H20        -3.5060   -2.5190   -4.5740 hn        1 MOL      0.268641
     41 N4          3.0650   -4.6530   -1.3150 n         1 MOL     -0.380319
     42 C13         4.3220   -4.6240   -2.0780 c3        1 MOL      0.097385
     43 C14         5.5210   -4.5000   -1.0930 c         1 MOL      0.465448
     44 O6          6.6530   -4.9330   -1.4010 o         1 MOL     -0.570470
     45 C15         4.3340   -3.5470   -3.2070 c3        1 MOL     -0.368450
     46 C16         4.3440   -2.0360   -2.9310 c         1 MOL      0.787875
     47 O7          4.6250   -1.2710   -3.8470 o         1 MOL     -0.699921
     48 O8          4.0930   -1.6510   -1.7360 o         1 MOL     -0.699921
     49 H21         2.6960   -3.7640   -0.9800 hn        1 MOL      0.276306
     50 H22         4.4730   -5.5360   -2.6620 h1        1 MOL      0.096449
     51 H23         3.5660   -3.6810   -3.9790 hc        1 MOL      0.107107
     52 H24         5.3060   -3.6070   -3.6920 hc        1 MOL      0.107107
     53 N5          5.2950   -3.8400   -0.0130 n         1 MOL     -0.031946
     54 C17         6.2900   -3.5440    1.0560 c3        1 MOL     -0.236806
     55 C18         6.9560   -2.1520    0.9840 c         1 MOL      0.582420
     56 O9          7.8610   -1.8200    1.7830 o         1 MOL     -0.542713
     57 H25         4.4340   -3.3060   -0.0620 hn        1 MOL     -0.115650
     58 H26         6.9910   -4.3810    1.1040 h1        1 MOL      0.133123
     59 H27         5.7610   -3.5740    2.0050 h1        1 MOL      0.133123
     60 N6          6.6400   -1.3620   -0.0880 n         1 MOL     -0.292320
     61 C19         7.2750   -0.1340   -0.5840 c3        1 MOL      0.097892
     62 C20         6.3530    1.1020   -0.3340 c         1 MOL      0.599822
     63 O10         5.1460    1.0240   -0.3230 o         1 MOL     -0.541731
     64 C21         7.8210   -0.4110   -1.9970 c3        1 MOL     -0.458536
     65 C22         8.6410    0.7670   -2.5310 c         1 MOL      0.664969
     66 N7          8.2110    1.4720   -3.5600 n         1 MOL     -0.749552
     67 O11         9.5980    1.0810   -1.8730 o         1 MOL     -0.558240
     68 H28         5.8900   -1.5490   -0.7460 hn        1 MOL      0.215636
     69 H29         8.1290    0.0300    0.0810 h1        1 MOL      0.054362
     70 H30         6.9740   -0.7240   -2.6080 hc        1 MOL      0.176799
     71 H31         8.5880   -1.1500   -1.7820 hc        1 MOL      0.176799
     72 H32         7.3340    1.3790   -4.0460 hn        1 MOL      0.348410
     73 H33         8.9490    2.1090   -3.8550 hn        1 MOL      0.348410
     74 N8          7.0010    2.2900   -0.2950 n         1 MOL     -0.525945
     75 C23         6.3440    3.6020   -0.4410 c3        1 MOL      0.120953
     76 C24         5.0620    3.8640    0.4430 c         1 MOL      0.597518
     77 O12         5.1600    3.7240    1.6930 o         1 MOL     -0.506267
     78 H34         7.9680    2.2900   -0.5790 hn        1 MOL      0.323663
     79 H35         5.9320    3.6530   -1.4540 h1        1 MOL      0.014184
     80 H36         7.0320    4.4280   -0.3140 h1        1 MOL      0.014184
     81 N9          3.9810    4.4400   -0.1120 n         1 MOL     -0.842251
     82 C25         2.8000    4.6630    0.7230 c3        1 MOL      0.783393
     83 C26         2.2260    3.2950    1.2780 c         1 MOL      0.150467
     84 O13         2.6590    2.2550    0.8300 o         1 MOL     -0.337228
     85 C27         1.7940    5.4460   -0.0600 c3        1 MOL     -0.117182
     86 C28         2.3210    6.8340   -0.3870 ca        1 MOL      0.046649
     87 C29         2.7400    7.1760   -1.7050 ca        1 MOL     -0.239664
     88 C30         2.5440    7.7030    0.7100 ca        1 MOL     -0.239664
     89 C31         3.1530    8.4890   -1.9240 ca        1 MOL     -0.134803
     90 C32         2.8830    9.0360    0.4750 ca        1 MOL     -0.134803
     91 C33         3.1280    9.4860   -0.8850 ca        1 MOL      0.206395
     92 O14         3.4460   10.7680   -1.1780 oh        1 MOL     -0.410388
     93 H37         4.0070    4.5030   -1.1210 hn        1 MOL      0.360026
     94 H38         3.0460    5.1560    1.6590 h1        1 MOL     -0.042552
     95 H39         0.8890    5.5470    0.5470 hc        1 MOL      0.010208
     96 H40         1.3520    4.9240   -0.9120 hc        1 MOL      0.010208
     97 H41         2.6980    6.3950   -2.4400 ha        1 MOL      0.138753
     98 H42         2.2420    7.4180    1.7070 ha        1 MOL      0.138753
     99 H43         3.3540    8.8580   -2.9160 ha        1 MOL      0.133274
    100 H44         2.9840    9.8180    1.2110 ha        1 MOL      0.133274
    101 H45         3.3630   10.9210   -2.1210 ho        1 MOL      0.340704
    102 N10         1.1850    3.2870    2.1220 n         1 MOL     -0.571708
    103 C34         0.4920    2.1550    2.7460 c3        1 MOL      0.244858
    104 C35        -0.1250    1.1590    1.7640 c         1 MOL      0.537158
    105 O15         0.5710    0.5290    0.9520 o         1 MOL     -0.535376
    106 C36         1.3780    1.3970    3.7780 c3        1 MOL      0.201330
    107 C37         0.5340    0.4290    4.6100 c3        1 MOL     -0.016347
    108 C38         2.2610    2.2670    4.7530 c3        1 MOL     -0.323368
    109 C39        -0.4200    1.0050    5.6080 c3        1 MOL     -0.432479
    110 H46         0.8140    4.2050    2.3330 hn        1 MOL      0.284387
    111 H47        -0.3810    2.5380    3.2660 h1        1 MOL      0.007991
    112 H48         2.1070    0.8590    3.1830 hc        1 MOL     -0.002650
    113 H49         1.1880   -0.2790    5.1280 hc        1 MOL      0.071038
    114 H50        -0.1090   -0.1050    3.9110 hc        1 MOL      0.071038
    115 H51         1.6350    2.9990    5.2490 hc        1 MOL      0.091163
    116 H52         2.8640    1.6870    5.4540 hc        1 MOL      0.091163
    117 H53         3.0770    2.7610    4.2110 hc        1 MOL      0.091163
    118 H54        -0.7820    0.1490    6.1810 hc        1 MOL      0.103054
    119 H55        -0.0050    1.7030    6.3470 hc        1 MOL      0.103054
    120 H56        -1.3310    1.3620    5.1360 hc        1 MOL      0.103054
    121 N11        -1.4470    0.9420    1.8210 n         1 MOL     -0.531546
    122 C40        -2.1240    0.0250    0.8610 c3        1 MOL     -0.083453
    123 C41        -3.5800    0.3390    0.6870 c         1 MOL      0.629603
    124 O16        -4.3890    0.3580    1.6200 o         1 MOL     -0.529423
    125 C42        -2.0890   -1.4060    1.3870 c3        1 MOL      0.077735
    126 O17        -2.4000   -2.2950    0.3420 oh        1 MOL     -0.595311
    127 H57        -2.0100    1.5680    2.3850 hn        1 MOL      0.314099
    128 H58        -1.6470    0.1530   -0.0990 h1        1 MOL      0.145719
    129 H59        -2.7010   -1.5540    2.2720 h1        1 MOL      0.115418
    130 H60        -1.0620   -1.6710    1.6310 h1        1 MOL      0.115418
    131 H61        -2.5790   -3.1880    0.6710 ho        1 MOL      0.406192
    132 N12        -4.0160    0.3300   -0.5440 n         1 MOL     -0.602324
    133 C43        -5.4470    0.3960   -0.9310 c3        1 MOL      0.235461
    134 C44        -5.7920   -0.5280   -2.1460 c         1 MOL      0.589077
    135 O18        -4.8710   -0.7520   -2.9160 o         1 MOL     -0.557603
    136 C45        -5.7860    1.8820   -1.1790 c3        1 MOL     -0.053980
    137 H62        -3.3670    0.0370   -1.2580 hn        1 MOL      0.269748
    138 H63        -6.0780    0.1010   -0.0910 h1        1 MOL      0.068399
    139 H64        -6.0620    2.3750   -0.2330 hc        1 MOL      0.016426
    140 H65        -4.9320    2.4200   -1.5920 hc        1 MOL      0.016426
    141 H66        -6.6260    1.9180   -1.8650 hc        1 MOL      0.016426
    142 N13        -7.0360   -1.0400   -2.3190 n         1 MOL     -0.748841
    143 C46        -8.3030   -0.7420   -1.5760 c3        1 MOL      0.621366
    144 C47        -9.0740    0.5230   -2.1870 c         1 MOL      0.268882
    145 O19        -8.7490    0.9200   -3.3380 o         1 MOL     -0.490017
    146 C48        -9.2700   -1.9630   -1.5940 c3        1 MOL     -0.430666
    147 H67        -7.0390   -1.4980   -3.2190 hn        1 MOL      0.337600
    148 H68        -7.9930   -0.6050   -0.5310 h1        1 MOL     -0.061937
    149 H69       -10.2010   -1.6330   -1.1290 hc        1 MOL      0.119914
    150 H70        -9.4520   -2.1190   -2.6590 hc        1 MOL      0.119914
    151 H71        -8.7300   -2.7980   -1.1640 hc        1 MOL      0.119914
    152 N14       -10.0810    1.1040   -1.5050 n         1 MOL     -0.377687
    153 C49       -10.4980    0.9050   -0.1020 c3        1 MOL     -0.032251
    154 C50        -9.9160    1.9790    0.8260 c         1 MOL      0.286787
    155 O20        -9.7840    1.6960    2.0440 o         1 MOL     -0.482602
    156 C51       -12.0180    0.8200    0.1360 c3        1 MOL      0.100770
    157 C52       -12.5810   -0.5220   -0.4030 c3        1 MOL     -0.245885
    158 C53       -14.0600   -0.5690   -0.1590 c         1 MOL      0.654910
    159 O21       -14.7800    0.1730   -0.8230 o         1 MOL     -0.653242
    160 O22       -14.5810   -1.3510    0.7210 o         1 MOL     -0.653242
    161 H72       -10.3960    1.9520   -1.9640 hn        1 MOL      0.315605
    162 H73       -10.0190   -0.0290    0.1970 h1        1 MOL      0.096864
    163 H74       -12.2940    1.7100   -0.4430 hc        1 MOL      0.034101
    164 H75       -12.2550    0.8210    1.1990 hc        1 MOL      0.034101
    165 H76       -12.1520   -1.3080    0.2340 hc        1 MOL      0.050248
    166 H77       -12.3490   -0.5930   -1.4620 hc        1 MOL      0.050248
    167 N15        -9.6810    3.1800    0.3600 n         1 MOL     -0.175271
    168 C54        -9.0850    4.3110    1.1830 c3        1 MOL     -0.448218
    169 H78        -9.8050    4.6290    1.9360 h1        1 MOL      0.182014
    170 H79        -8.1760    3.9650    1.6730 h1        1 MOL      0.182014
    171 H80        -8.8500    5.1510    0.5290 h1        1 MOL      0.182014
    172 H81        -9.8080    3.3000   -0.6350 hn        1 MOL      0.222660
    173 Ca1         2.5830    0.1840   -0.6890 Ca        1 MOL      1.678066
    174 O23         0.8830   -0.8130   -2.4410 oh        1 MOL     -0.879593
    175 H82         0.1270   -0.2640   -2.6480 ho        1 MOL      0.425005
    176 H83         0.8870   -1.4780   -3.1330 ho        1 MOL      0.425005
    177 O24         1.0990    2.3450   -1.7530 oh        1 MOL     -0.879593
    178 H84         1.3220    2.7900   -2.5650 ho        1 MOL      0.425005
    179 H85         0.3170    2.7930   -1.4350 ho        1 MOL      0.425005
    180 O25         3.8320    1.0800   -2.8880 oh        1 MOL     -0.879593
    181 H86         4.0910    0.1820   -3.0860 ho        1 MOL      0.425005
    182 H87         4.4540    1.6200   -3.3710 ho        1 MOL      0.425005
@<TRIPOS>BOND
     1    1    2 1   
     2    1    4 1   
     3    1    5 1   
     4    1    6 1   
     5    2    3 2   
     6    2    7 1   
     7    7    8 1   
     8    7   15 1   
     9    8    9 1   
    10    8   11 1   
    11    8   16 1   
    12    9   10 2   
    13    9   19 1   
    14   11   12 1   
    15   11   17 1   
    16   11   18 1   
    17   12   13 1   
    18   12   14 1   
    19   19   20 1   
    20   19   28 1   
    21   20   21 1   
    22   20   23 1   
    23   20   29 1   
    24   21   22 2   
    25   21   41 1   
    26   23   24 1   
    27   23   30 1   
    28   23   31 1   
    29   24   25 1   
    30   24   32 1   
    31   24   33 1   
    32   25   26 1   
    33   25   34 1   
    34   25   35 1   
    35   26   27 1   
    36   26   36 1   
    37   26   37 1   
    38   27   38 1   
    39   27   39 1   
    40   27   40 1   
    41   41   42 1   
    42   41   49 1   
    43   42   43 1   
    44   42   45 1   
    45   42   50 1   
    46   43   44 2   
    47   43   53 1   
    48   45   46 1   
    49   45   51 1   
    50   45   52 1   
    51   46   47 1   
    52   46   48 1   
    53   53   54 1   
    54   53   57 1   
    55   54   55 1   
    56   54   58 1   
    57   54   59 1   
    58   55   56 2   
    59   55   60 1   
    60   60   61 1   
    61   60   68 1   
    62   61   62 1   
    63   61   64 1   
    64   61   69 1   
    65   62   63 2   
    66   62   74 1   
    67   64   65 1   
    68   64   70 1   
    69   64   71 1   
    70   65   66 1   
    71   65   67 2   
    72   66   72 1   
    73   66   73 1   
    74   74   75 1   
    75   74   78 1   
    76   75   76 1   
    77   75   79 1   
    78   75   80 1   
    79   76   77 2   
    80   76   81 1   
    81   81   82 1   
    82   81   93 1   
    83   82   83 1   
    84   82   85 1   
    85   82   94 1   
    86   83   84 2   
    87   83  102 1   
    88   85   86 1   
    89   85   95 1   
    90   85   96 1   
    91   86   87 ar  
    92   86   88 ar  
    93   87   89 ar  
    94   87   97 1   
    95   88   90 ar  
    96   88   98 1   
    97   89   91 ar  
    98   89   99 1   
    99   90   91 ar  
   100   90  100 1   
   101   91   92 1   
   102   92  101 1   
   103  102  103 1   
   104  102  110 1   
   105  103  104 1   
   106  103  106 1   
   107  103  111 1   
   108  104  105 2   
   109  104  121 1   
   110  106  107 1   
   111  106  108 1   
   112  106  112 1   
   113  107  109 1   
   114  107  113 1   
   115  107  114 1   
   116  108  115 1   
   117  108  116 1   
   118  108  117 1   
   119  109  118 1   
   120  109  119 1   
   121  109  120 1   
   122  121  122 1   
   123  121  127 1   
   124  122  123 1   
   125  122  125 1   
   126  122  128 1   
   127  123  124 2   
   128  123  132 1   
   129  125  126 1   
   130  125  129 1   
   131  125  130 1   
   132  126  131 1   
   133  132  133 1   
   134  132  137 1   
   135  133  134 1   
   136  133  136 1   
   137  133  138 1   
   138  134  135 2   
   139  134  142 1   
   140  136  139 1   
   141  136  140 1   
   142  136  141 1   
   143  142  143 1   
   144  142  147 1   
   145  143  144 1   
   146  143  146 1   
   147  143  148 1   
   148  144  145 2   
   149  144  152 1   
   150  146  149 1   
   151  146  150 1   
   152  146  151 1   
   153  152  153 1   
   154  152  161 1   
   155  153  154 1   
   156  153  156 1   
   157  153  162 1   
   158  154  155 2   
   159  154  167 1   
   160  156  157 1   
   161  156  163 1   
   162  156  164 1   
   163  157  158 1   
   164  157  165 1   
   165  157  166 1   
   166  158  159 1   
   167  158  160 1   
   168  167  168 1   
   169  167  172 1   
   170  168  169 1   
   171  168  170 1   
   172  168  171 1   
   173  174  175 1   
   174  174  176 1   
   175  177  178 1   
   176  177  179 1   
   177  180  181 1   
   178  180  182 1   
@<TRIPOS>SUBSTRUCTURE
     1 MOL         1 TEMP              0 ****  ****    0 ROOT
