@<TRIPOS>MOLECULE
MOL
  181   177     1     0     0
SMALL
resp


@<TRIPOS>ATOM
      1 C1          7.1600   -4.3350    5.3270 c3        1 MOL     -0.276648
      2 C2          6.6000   -3.2480    4.3110 c         1 MOL      0.655125
      3 O1          5.5120   -2.7930    4.6080 o         1 MOL     -0.543513
      4 H1          6.5670   -4.3160    6.2420 hc        1 MOL      0.062874
      5 H2          7.0960   -5.3240    4.8740 hc        1 MOL      0.062874
      6 H3          8.1990   -4.1100    5.5640 hc        1 MOL      0.062874
      7 N1          7.1620   -3.0030    3.0900 n         1 MOL     -0.497979
      8 C3          8.3960   -3.6600    2.6520 c3        1 MOL      0.146912
      9 C4          8.2030   -4.3930    1.3030 c         1 MOL      0.285524
     10 O2          7.1210   -4.9760    1.2000 o         1 MOL     -0.415341
     11 C5          9.3850   -2.4860    2.3800 c3        1 MOL     -0.126569
     12 C6          8.8720   -1.4070    1.4560 c         1 MOL      0.740344
     13 O3          9.1700   -1.4480    0.2500 o         1 MOL     -0.721471
     14 O4          8.2610   -0.4690    1.9620 o         1 MOL     -0.721471
     15 H4          6.5900   -2.6040    2.3660 hn        1 MOL      0.334438
     16 H5          8.8450   -4.2880    3.4230 h1        1 MOL      0.058104
     17 H6         10.3270   -2.8640    2.0050 hc        1 MOL     -0.016063
     18 H7          9.6670   -2.0980    3.3640 hc        1 MOL     -0.016063
     19 N2          9.2060   -4.4290    0.4050 n         1 MOL     -0.386223
     20 C7          9.0760   -5.1010   -0.8500 c3        1 MOL      0.190650
     21 C8          7.8660   -4.6340   -1.7170 c         1 MOL      0.442595
     22 O5          7.4690   -5.2570   -2.6600 o         1 MOL     -0.527112
     23 C9          9.1850   -6.6370   -0.5960 c3        1 MOL     -0.349155
     24 H8         10.0520   -3.9490    0.6720 hn        1 MOL      0.292803
     25 H9          9.9380   -4.7380   -1.4050 h1        1 MOL      0.035389
     26 H10        10.1420   -7.0460   -0.2680 hc        1 MOL      0.095240
     27 H11         8.4130   -6.9630    0.0920 hc        1 MOL      0.095240
     28 H12         8.9470   -7.0340   -1.5870 hc        1 MOL      0.095240
     29 N3          7.2650   -3.4430   -1.4180 n         1 MOL     -0.169361
     30 C10         6.0320   -2.9260   -2.1100 c3        1 MOL      0.065492
     31 C11         6.1610   -1.4590   -2.6660 c         1 MOL      0.583376
     32 O6          7.2460   -0.9160   -2.5050 o         1 MOL     -0.627811
     33 C12         4.8820   -3.0710   -1.0880 c3        1 MOL     -0.404048
     34 C13         5.1010   -2.1340    0.1400 c         1 MOL      0.586568
     35 O7          5.9610   -1.2420    0.1060 o         1 MOL     -0.581084
     36 O8          4.3990   -2.3380    1.1470 o         1 MOL     -0.581084
     37 H13         7.5950   -2.9120   -0.6260 hn        1 MOL      0.016214
     38 H14         5.8630   -3.5380   -2.9910 h1        1 MOL      0.042063
     39 H15         4.9400   -4.0970   -0.7310 hc        1 MOL      0.143927
     40 H16         4.0050   -2.8250   -1.6830 hc        1 MOL      0.143927
     41 N4          5.0410   -0.9130   -3.1880 n         1 MOL     -0.499421
     42 C14         4.9500    0.4530   -3.7700 c3        1 MOL     -0.115960
     43 C15         5.0060    1.5790   -2.7620 c         1 MOL      0.793920
     44 O9          5.4060    1.4040   -1.6040 o         1 MOL     -0.627713
     45 H17         4.2130   -1.4870   -3.2880 hn        1 MOL      0.347070
     46 H18         4.0380    0.5450   -4.3570 h1        1 MOL      0.096003
     47 H19         5.7820    0.5850   -4.4550 h1        1 MOL      0.096003
     48 N5          4.7520    2.7480   -3.2870 n         1 MOL     -0.578297
     49 C16         4.6180    4.0170   -2.6100 c3        1 MOL      0.040272
     50 C17         3.2780    4.0860   -1.8470 c         1 MOL      0.599174
     51 O10         2.2080    3.7470   -2.3970 o         1 MOL     -0.492951
     52 C18         4.6580    5.1510   -3.6180 c3        1 MOL     -0.158949
     53 C19         4.7990    6.4380   -2.9010 c         1 MOL      0.586615
     54 N6          4.0530    7.3880   -3.3460 n         1 MOL     -0.734484
     55 O11         5.6930    6.6620   -2.1130 o         1 MOL     -0.563196
     56 H20         4.6190    2.8070   -4.2950 hn        1 MOL      0.288784
     57 H21         5.4630    4.2530   -1.9590 h1        1 MOL      0.016747
     58 H22         3.8860    5.2280   -4.3820 hc        1 MOL      0.078290
     59 H23         5.5370    4.9810   -4.2450 hc        1 MOL      0.078290
     60 H24         3.2570    7.2740   -3.9560 hn        1 MOL      0.368126
     61 H25         4.1220    8.2710   -2.8610 hn        1 MOL      0.368126
     62 N7          3.3090    4.3460   -0.5250 n         1 MOL     -0.540723
     63 C20         2.1200    4.4280    0.3990 c3        1 MOL      0.087140
     64 C21         1.0320    5.4870   -0.0800 c         1 MOL      0.575163
     65 O12         1.3240    6.3830   -0.8760 o         1 MOL     -0.557564
     66 H26         4.1930    4.3050   -0.0430 hn        1 MOL      0.310336
     67 H27         2.4600    4.7680    1.3710 h1        1 MOL      0.056791
     68 H28         1.7190    3.4460    0.6540 h1        1 MOL      0.056791
     69 N8         -0.1470    5.5270    0.5290 n         1 MOL     -0.465687
     70 C22        -0.6170    4.8700    1.7720 c3        1 MOL     -0.203488
     71 C23        -1.7080    3.8300    1.4960 c         1 MOL      0.656570
     72 O13        -2.3420    3.8370    0.4470 o         1 MOL     -0.515194
     73 C24        -1.0650    5.9640    2.8750 c3        1 MOL      0.435318
     74 C25         0.0920    6.8570    3.1210 c3        1 MOL     -0.204442
     75 O14        -2.2130    6.7650    2.5170 oh        1 MOL     -0.624081
     76 H29        -0.8240    6.2090    0.2210 hn        1 MOL      0.335841
     77 H30         0.1880    4.2780    2.2000 h1        1 MOL      0.069571
     78 H31        -1.2910    5.4580    3.8090 h1        1 MOL     -0.016998
     79 H32        -3.0360    6.3540    2.7820 ho        1 MOL      0.411039
     80 H33         0.9720    6.2430    3.2880 hc        1 MOL      0.044171
     81 H34         0.3550    7.4590    2.2510 hc        1 MOL      0.044171
     82 H35        -0.0140    7.5560    3.9460 hc        1 MOL      0.044171
     83 N9         -1.8410    2.9600    2.4710 n         1 MOL     -0.460695
     84 C26        -3.0260    2.1300    2.6330 c3        1 MOL     -0.112122
     85 C27        -4.2300    2.9630    2.9800 c         1 MOL      0.640782
     86 O15        -4.1190    3.6940    3.9450 o         1 MOL     -0.615116
     87 C28        -2.7880    1.0510    3.6540 c3        1 MOL      0.182227
     88 C29        -1.4870    0.3030    3.3700 c3        1 MOL     -0.043802
     89 C30        -4.0200    0.0930    3.7840 c3        1 MOL     -0.173316
     90 C31        -1.3950   -0.2580    1.9610 c3        1 MOL     -0.187672
     91 H36        -1.1500    2.8970    3.2060 hn        1 MOL      0.257733
     92 H37        -3.1660    1.6340    1.6710 h1        1 MOL      0.110886
     93 H38        -2.6730    1.3720    4.6940 hc        1 MOL     -0.035411
     94 H39        -1.4640   -0.4920    4.1130 hc        1 MOL      0.003671
     95 H40        -0.6060    0.9180    3.5300 hc        1 MOL      0.003671
     96 H41        -3.9090   -0.5590    4.6420 hc        1 MOL      0.050863
     97 H42        -4.9220    0.6480    4.0040 hc        1 MOL      0.050863
     98 H43        -4.2210   -0.4430    2.8500 hc        1 MOL      0.050863
     99 H44        -2.3390   -0.7210    1.6980 hc        1 MOL      0.067424
    100 H45        -1.1580    0.5530    1.2610 hc        1 MOL      0.067424
    101 H46        -0.5880   -0.9940    1.9970 hc        1 MOL      0.067424
    102 N10        -5.3500    2.8950    2.2400 n         1 MOL     -0.512195
    103 C32        -5.5810    2.5480    0.8100 c3        1 MOL      0.164849
    104 C33        -6.4890    1.2400    0.7710 c         1 MOL      0.566091
    105 O16        -6.9660    0.7570    1.7970 o         1 MOL     -0.513298
    106 C34        -6.3010    3.7000    0.0710 c3        1 MOL     -0.207586
    107 C35        -7.5430    4.2410    0.8300 c         1 MOL      0.712106
    108 O17        -7.4240    4.6820    2.0220 o         1 MOL     -0.703530
    109 O18        -8.6790    4.1790    0.2960 o         1 MOL     -0.703530
    110 H47        -6.0780    3.4860    2.6160 hn        1 MOL      0.306424
    111 H48        -4.6630    2.2870    0.2970 h1        1 MOL      0.041807
    112 H49        -6.5020    3.4740   -0.9800 hc        1 MOL      0.022066
    113 H50        -5.5580    4.5040    0.0270 hc        1 MOL      0.022066
    114 N11        -6.7600    0.6930   -0.4440 n         1 MOL     -0.702718
    115 C36        -7.9790   -0.1130   -0.7380 c3        1 MOL      0.481662
    116 C37        -7.9420   -0.9300   -2.0390 c         1 MOL      0.183393
    117 O19        -7.4900   -0.3860   -3.0550 o         1 MOL     -0.485629
    118 C38        -9.1260    0.8800   -0.7970 c3        1 MOL     -0.140090
    119 C39       -10.5160    0.2060   -0.9640 ca        1 MOL      0.062849
    120 C40       -11.2120    0.1940   -2.2170 ca        1 MOL     -0.110812
    121 C41       -11.2010   -0.2930    0.1890 ca        1 MOL     -0.110812
    122 C42       -12.4900   -0.3520   -2.3960 ca        1 MOL     -0.151747
    123 C43       -12.4070   -0.9660   -0.0090 ca        1 MOL     -0.151747
    124 C44       -12.9990   -1.0590   -1.2600 ca        1 MOL     -0.096131
    125 H51        -6.3460    1.0660   -1.2890 hn        1 MOL      0.350253
    126 H52        -8.0700   -0.7690    0.1300 h1        1 MOL     -0.045264
    127 H53        -8.9860    1.6290   -1.5820 hc        1 MOL      0.079969
    128 H54        -9.3010    1.3490    0.1700 hc        1 MOL      0.079969
    129 H55       -10.7720    0.7780   -3.0170 ha        1 MOL      0.113715
    130 H56       -10.7370   -0.2870    1.1630 ha        1 MOL      0.113715
    131 H57       -13.0120   -0.3750   -3.3380 ha        1 MOL      0.110556
    132 H58       -12.8870   -1.3990    0.8530 ha        1 MOL      0.110556
    133 H59       -13.9870   -1.5000   -1.3350 ha        1 MOL      0.074807
    134 N12        -8.3630   -2.2250   -2.1200 n         1 MOL      0.010647
    135 C45        -8.8680   -3.0130   -0.9650 c3        1 MOL     -0.014829
    136 C46        -7.7250   -3.6510   -0.0410 c         1 MOL      0.638623
    137 O20        -7.9720   -3.9170    1.1560 o         1 MOL     -0.579733
    138 C47        -9.7680   -4.0010   -1.6360 c3        1 MOL     -0.024044
    139 C48        -9.0880   -4.3290   -3.0220 c3        1 MOL      0.041664
    140 C49        -8.5700   -2.9130   -3.3740 c3        1 MOL     -0.194799
    141 H60        -9.5440   -2.3920   -0.3880 h1        1 MOL      0.033150
    142 H61        -9.8580   -4.9550   -1.1240 hc        1 MOL      0.005290
    143 H62       -10.7020   -3.4430   -1.7130 hc        1 MOL      0.005290
    144 H63        -8.3340   -5.0850   -2.8110 hc        1 MOL      0.010322
    145 H64        -9.7770   -4.6770   -3.7820 hc        1 MOL      0.010322
    146 H65        -7.6900   -3.1350   -3.9730 h1        1 MOL      0.082947
    147 H66        -9.3270   -2.4430   -3.9950 h1        1 MOL      0.082947
    148 N13        -6.5110   -3.8840   -0.6270 n         1 MOL     -0.552902
    149 C50        -5.4440   -4.6330    0.0740 c3        1 MOL      0.201008
    150 C51        -5.8560   -6.0710    0.3050 c         1 MOL      0.421740
    151 O21        -5.9660   -6.8720   -0.6580 o         1 MOL     -0.586315
    152 C52        -4.1790   -4.5650   -0.8350 c3        1 MOL     -0.043928
    153 C53        -3.5710   -3.1330   -0.7090 c3        1 MOL     -0.071320
    154 C54        -2.3600   -2.8520   -1.6100 c         1 MOL      0.661222
    155 O22        -1.8800   -1.6870   -1.5840 o         1 MOL     -0.683007
    156 O23        -1.8560   -3.7600   -2.3120 o         1 MOL     -0.683007
    157 H67        -6.4340   -3.6840   -1.6180 hn        1 MOL      0.358589
    158 H68        -5.2340   -4.1890    1.0430 h1        1 MOL      0.067413
    159 H69        -4.4790   -4.7220   -1.8720 hc        1 MOL      0.017160
    160 H70        -3.4880   -5.3090   -0.4730 hc        1 MOL      0.017160
    161 H71        -3.3350   -3.0710    0.3590 hc        1 MOL     -0.018509
    162 H72        -4.2920   -2.3340   -0.8910 hc        1 MOL     -0.018509
    163 N14        -6.1090   -6.5790    1.4930 n         1 MOL     -0.307297
    164 C55        -6.3460   -5.8610    2.7540 c3        1 MOL     -0.116694
    165 H73        -5.5840   -6.1420    3.4810 h1        1 MOL      0.069583
    166 H74        -6.2970   -4.7860    2.5760 h1        1 MOL      0.069583
    167 H75        -7.3310   -6.1210    3.1410 h1        1 MOL      0.069583
    168 H76        -6.1470   -7.5930    1.5300 hn        1 MOL      0.256536
    169 Ca1         7.5520    0.7510   -0.3050 Ca        1 MOL      1.760562
    170 O24         8.3250    2.2980   -2.5370 oh        1 MOL     -0.831065
    171 H77         7.9780    2.7880   -3.2950 ho        1 MOL      0.397276
    172 H78         9.2150    2.6330   -2.4280 ho        1 MOL      0.397276
    173 O25         5.5420    1.3060    1.6620 oh        1 MOL     -0.831065
    174 H79         4.7480    0.8940    1.3120 ho        1 MOL      0.397276
    175 H80         5.2180    2.0010    2.2420 ho        1 MOL      0.397276
    176 O26        10.0790    1.5990   -0.2600 oh        1 MOL     -0.831065
    177 H81        10.6640    1.2840    0.4300 ho        1 MOL      0.397276
    178 H82        10.6070    2.2450   -0.7370 ho        1 MOL      0.397276
    179 O27         7.3030    3.3240    0.1160 oh        1 MOL     -0.831065
    180 H83         7.7680    4.0170   -0.3360 ho        1 MOL      0.397276
    181 H84         6.6250    3.7790    0.6220 ho        1 MOL      0.397276
@<TRIPOS>BOND
     1    1    2 1   
     2    1    4 1   
     3    1    5 1   
     4    1    6 1   
     5    2    3 2   
     6    2    7 1   
     7    7    8 1   
     8    7   15 1   
     9    8    9 1   
    10    8   11 1   
    11    8   16 1   
    12    9   10 2   
    13    9   19 1   
    14   11   12 1   
    15   11   17 1   
    16   11   18 1   
    17   12   13 1   
    18   12   14 1   
    19   19   20 1   
    20   19   24 1   
    21   20   21 1   
    22   20   23 1   
    23   20   25 1   
    24   21   22 2   
    25   21   29 1   
    26   23   26 1   
    27   23   27 1   
    28   23   28 1   
    29   29   30 1   
    30   29   37 1   
    31   30   31 1   
    32   30   33 1   
    33   30   38 1   
    34   31   32 2   
    35   31   41 1   
    36   33   34 1   
    37   33   39 1   
    38   33   40 1   
    39   34   35 1   
    40   34   36 1   
    41   41   42 1   
    42   41   45 1   
    43   42   43 1   
    44   42   46 1   
    45   42   47 1   
    46   43   44 2   
    47   43   48 1   
    48   48   49 1   
    49   48   56 1   
    50   49   50 1   
    51   49   52 1   
    52   49   57 1   
    53   50   51 2   
    54   50   62 1   
    55   52   53 1   
    56   52   58 1   
    57   52   59 1   
    58   53   54 1   
    59   53   55 2   
    60   54   60 1   
    61   54   61 1   
    62   62   63 1   
    63   62   66 1   
    64   63   64 1   
    65   63   67 1   
    66   63   68 1   
    67   64   65 2   
    68   64   69 1   
    69   69   70 1   
    70   69   76 1   
    71   70   71 1   
    72   70   73 1   
    73   70   77 1   
    74   71   72 2   
    75   71   83 1   
    76   73   74 1   
    77   73   75 1   
    78   73   78 1   
    79   74   80 1   
    80   74   81 1   
    81   74   82 1   
    82   75   79 1   
    83   83   84 1   
    84   83   91 1   
    85   84   85 1   
    86   84   87 1   
    87   84   92 1   
    88   85   86 2   
    89   85  102 1   
    90   87   88 1   
    91   87   89 1   
    92   87   93 1   
    93   88   90 1   
    94   88   94 1   
    95   88   95 1   
    96   89   96 1   
    97   89   97 1   
    98   89   98 1   
    99   90   99 1   
   100   90  100 1   
   101   90  101 1   
   102  102  103 1   
   103  102  110 1   
   104  103  104 1   
   105  103  106 1   
   106  103  111 1   
   107  104  105 2   
   108  104  114 1   
   109  106  107 1   
   110  106  112 1   
   111  106  113 1   
   112  107  108 1   
   113  107  109 1   
   114  114  115 1   
   115  114  125 1   
   116  115  116 1   
   117  115  118 1   
   118  115  126 1   
   119  116  117 2   
   120  116  134 1   
   121  118  119 1   
   122  118  127 1   
   123  118  128 1   
   124  119  120 ar  
   125  119  121 ar  
   126  120  122 ar  
   127  120  129 1   
   128  121  123 ar  
   129  121  130 1   
   130  122  124 ar  
   131  122  131 1   
   132  123  124 ar  
   133  123  132 1   
   134  124  133 1   
   135  134  135 1   
   136  134  140 1   
   137  135  136 1   
   138  135  138 1   
   139  135  141 1   
   140  136  137 2   
   141  136  148 1   
   142  138  139 1   
   143  138  142 1   
   144  138  143 1   
   145  139  140 1   
   146  139  144 1   
   147  139  145 1   
   148  140  146 1   
   149  140  147 1   
   150  148  149 1   
   151  148  157 1   
   152  149  150 1   
   153  149  152 1   
   154  149  158 1   
   155  150  151 2   
   156  150  163 1   
   157  152  153 1   
   158  152  159 1   
   159  152  160 1   
   160  153  154 1   
   161  153  161 1   
   162  153  162 1   
   163  154  155 1   
   164  154  156 1   
   165  163  164 1   
   166  163  168 1   
   167  164  165 1   
   168  164  166 1   
   169  164  167 1   
   170  170  171 1   
   171  170  172 1   
   172  173  174 1   
   173  173  175 1   
   174  176  177 1   
   175  176  178 1   
   176  179  180 1   
   177  179  181 1   
@<TRIPOS>SUBSTRUCTURE
     1 MOL         1 TEMP              0 ****  ****    0 ROOT
