@<TRIPOS>MOLECULE
MOL
  178   175     1     0     0
SMALL
resp


@<TRIPOS>ATOM
      1 C1          3.8870   -3.0170    4.2880 c3        1 MOL     -0.408836
      2 C2          5.1460   -2.2400    3.8160 c         1 MOL      0.682658
      3 O1          5.0090   -1.0980    3.4710 o         1 MOL     -0.584066
      4 H1          3.7840   -2.9180    5.3690 hc        1 MOL      0.101052
      5 H2          3.0030   -2.6080    3.7990 hc        1 MOL      0.101052
      6 H3          3.9920   -4.0710    4.0280 hc        1 MOL      0.101052
      7 N1          6.3560   -2.8670    3.7110 n         1 MOL     -0.476258
      8 C3          7.6660   -2.1820    3.2470 c3        1 MOL      0.033776
      9 C4          7.6940   -1.8770    1.7750 c         1 MOL      0.671517
     10 O2          7.0660   -2.5650    1.0130 o         1 MOL     -0.438690
     11 C5          8.7740   -3.2290    3.5470 c3        1 MOL     -0.099523
     12 C6          8.4420   -4.6970    3.0190 c         1 MOL      0.623786
     13 O3          8.9510   -5.0360    1.9480 o         1 MOL     -0.672910
     14 O4          7.5780   -5.4240    3.6720 o         1 MOL     -0.672910
     15 H4          6.4170   -3.8550    3.9280 hn        1 MOL      0.226400
     16 H5          7.8600   -1.2770    3.8140 h1        1 MOL      0.021696
     17 H6          8.9980   -3.3110    4.6060 hc        1 MOL     -0.023582
     18 H7          9.6640   -2.8190    3.0710 hc        1 MOL     -0.023582
     19 N2          8.3360   -0.7740    1.3890 n         1 MOL     -0.608290
     20 C7          8.4760   -0.3210    0.0490 c3        1 MOL      0.152880
     21 C8          7.0480    0.0450   -0.4670 c         1 MOL      0.663028
     22 O5          6.3410    0.9180    0.0230 o         1 MOL     -0.564381
     23 C9          9.4150    0.8890   -0.1520 c3        1 MOL     -0.196627
     24 H8          8.9990   -0.3790    2.0410 hn        1 MOL      0.312719
     25 H9          8.7960   -1.1600   -0.5570 h1        1 MOL      0.029334
     26 H10         8.8780    1.8020    0.1190 hc        1 MOL      0.050229
     27 H11        10.3000    0.8380    0.4850 hc        1 MOL      0.050229
     28 H12         9.7290    1.0430   -1.1770 hc        1 MOL      0.050229
     29 N3          6.5580   -0.7400   -1.4080 n         1 MOL     -0.733324
     30 C10         5.3450   -0.5070   -2.2150 c3        1 MOL      0.624354
     31 C11         5.5170    0.5700   -3.2020 c         1 MOL      0.298218
     32 O6          6.6670    0.9760   -3.3870 o         1 MOL     -0.521241
     33 C12         4.8900   -1.8390   -2.8780 c3        1 MOL     -0.114545
     34 C13         3.4170   -2.1690   -2.7970 c         1 MOL      0.591718
     35 O7          2.7280   -1.8490   -1.7790 o         1 MOL     -0.740924
     36 O8          2.7930   -2.7700   -3.6980 o         1 MOL     -0.740924
     37 H13         7.0350   -1.6130   -1.5820 hn        1 MOL      0.266577
     38 H14         4.5100   -0.1310   -1.6320 h1        1 MOL     -0.017937
     39 H15         5.5140   -2.5930   -2.3810 hc        1 MOL      0.011988
     40 H16         5.1900   -1.7910   -3.9150 hc        1 MOL      0.011988
     41 N4          4.4710    0.9970   -3.9000 n         1 MOL     -0.247902
     42 C14         4.4950    1.9200   -5.0390 c3        1 MOL     -0.074529
     43 C15         3.7400    3.2310   -4.8250 c         1 MOL      0.528779
     44 O9          3.7510    4.1470   -5.6630 o         1 MOL     -0.558087
     45 H17         3.5840    0.5830   -3.6320 hn        1 MOL      0.237028
     46 H18         4.0630    1.4500   -5.9310 h1        1 MOL      0.075515
     47 H19         5.5340    2.1410   -5.2770 h1        1 MOL      0.075515
     48 N5          3.0860    3.4320   -3.6810 n         1 MOL     -0.378581
     49 C16         2.1260    4.5080   -3.5310 c3        1 MOL      0.091511
     50 C17         1.9740    4.8950   -2.0110 c         1 MOL      0.472762
     51 O10         1.6260    4.0810   -1.1210 o         1 MOL     -0.427108
     52 C18         0.7470    4.1430   -4.1000 c3        1 MOL     -0.196767
     53 C19        -0.1940    5.2900   -4.1250 c         1 MOL      0.594090
     54 N6         -0.9470    5.4670   -3.0360 n         1 MOL     -0.745785
     55 O11        -0.3270    6.0650   -5.0670 o         1 MOL     -0.561042
     56 H20         3.2190    2.7820   -2.9250 hn        1 MOL      0.219641
     57 H21         2.5530    5.3720   -4.0260 h1        1 MOL      0.052228
     58 H22         0.3500    3.3000   -3.5290 hc        1 MOL      0.083531
     59 H23         0.9940    3.8480   -5.1270 hc        1 MOL      0.083531
     60 H24        -1.0150    4.8100   -2.2640 hn        1 MOL      0.355036
     61 H25        -1.7190    6.1020   -3.1470 hn        1 MOL      0.355036
     62 N7          2.1510    6.1800   -1.6350 n         1 MOL     -0.379123
     63 C20         2.0390    6.7520   -0.2460 c3        1 MOL     -0.381682
     64 C21         0.7120    6.5960    0.4930 c         1 MOL      0.697639
     65 O12        -0.4000    6.5640   -0.0270 o         1 MOL     -0.503197
     66 H26         2.2290    6.8690   -2.3710 hn        1 MOL      0.311495
     67 H27         2.1770    7.8330   -0.3250 h1        1 MOL      0.161615
     68 H28         2.7280    6.1790    0.3740 h1        1 MOL      0.161615
     69 N8          0.8530    6.3640    1.7920 n         1 MOL     -0.461033
     70 C22        -0.3020    6.6220    2.6680 c3        1 MOL     -0.331509
     71 C23        -1.2240    5.4250    2.8640 c         1 MOL      0.573538
     72 O13        -2.4070    5.5480    3.2140 o         1 MOL     -0.584605
     73 C24        -0.0370    7.1790    4.0540 c3        1 MOL      0.569489
     74 C25         0.6600    6.2690    5.0250 c3        1 MOL     -0.280372
     75 O14         0.7830    8.3830    4.0020 oh        1 MOL     -0.665849
     76 H29         1.7650    6.3880    2.2180 hn        1 MOL      0.290550
     77 H30        -0.9320    7.4050    2.2230 h1        1 MOL      0.132526
     78 H31        -1.0040    7.2920    4.5430 h1        1 MOL      0.005893
     79 H32         1.6180    8.1140    3.5940 ho        1 MOL      0.370833
     80 H33         0.8150    6.7610    5.9930 hc        1 MOL      0.057637
     81 H34         0.0620    5.3630    5.1350 hc        1 MOL      0.057637
     82 H35         1.6070    5.9770    4.5780 hc        1 MOL      0.057637
     83 N9         -0.7270    4.2450    2.5550 n         1 MOL     -0.215573
     84 C26        -1.4390    2.8730    2.6550 c3        1 MOL      0.004711
     85 C27        -1.2690    2.0180    1.4050 c         1 MOL      0.266245
     86 O15        -0.3690    2.0230    0.5710 o         1 MOL     -0.484846
     87 C28        -1.1730    2.1540    4.0110 c3        1 MOL      0.081390
     88 C29         0.3080    1.8550    4.2830 c3        1 MOL      0.005886
     89 C30        -1.8600    2.8390    5.2640 c3        1 MOL     -0.325188
     90 C31         1.0130    0.7530    3.4900 c3        1 MOL     -0.066963
     91 H36         0.2220    4.1910    2.2300 hn        1 MOL      0.224066
     92 H37        -2.4830    3.1900    2.6330 h1        1 MOL      0.066180
     93 H38        -1.6950    1.2090    3.9420 hc        1 MOL      0.027918
     94 H39         0.4190    1.5710    5.3360 hc        1 MOL     -0.023381
     95 H40         0.9010    2.7650    4.1890 hc        1 MOL     -0.023381
     96 H41        -2.8580    3.2240    5.0580 hc        1 MOL      0.084118
     97 H42        -1.9940    2.1340    6.0820 hc        1 MOL      0.084118
     98 H43        -1.3150    3.7630    5.4430 hc        1 MOL      0.084118
     99 H44         0.4350   -0.1740    3.4380 hc        1 MOL      0.055182
    100 H45         1.2910    1.2310    2.5540 hc        1 MOL      0.055182
    101 H46         1.9990    0.5890    3.9180 hc        1 MOL      0.055182
    102 N10        -2.1970    1.1480    1.2110 n         1 MOL     -0.126534
    103 C32        -2.1360    0.1110    0.1660 c3        1 MOL      0.031674
    104 C33        -3.5280   -0.2690   -0.3460 c         1 MOL      0.555020
    105 O16        -3.8320   -1.4160   -0.7180 o         1 MOL     -0.521999
    106 C34        -1.4440   -1.1400    0.7450 c3        1 MOL     -0.245615
    107 C35        -0.5820   -1.8350   -0.2630 c         1 MOL      0.965784
    108 O17        -0.5810   -1.5100   -1.4700 o         1 MOL     -0.802386
    109 O18         0.0810   -2.8320    0.0630 o         1 MOL     -0.802386
    110 H47        -2.9570    1.2360    1.8650 hn        1 MOL      0.174424
    111 H48        -1.5550    0.4930   -0.6840 h1        1 MOL      0.115557
    112 H49        -2.1550   -1.8060    1.2310 hc        1 MOL      0.016139
    113 H50        -0.7930   -0.8770    1.5830 hc        1 MOL      0.016139
    114 N11        -4.5100    0.6960   -0.3640 n         1 MOL     -0.698984
    115 C36        -5.8480    0.4390   -0.7530 c3        1 MOL      0.689068
    116 C37        -6.3820   -0.7050    0.0960 c         1 MOL      0.291440
    117 O19        -6.1160   -0.7140    1.2880 o         1 MOL     -0.539887
    118 C38        -6.7490    1.7000   -0.5460 c3        1 MOL     -0.240962
    119 C39        -8.2540    1.5930   -0.7470 ca        1 MOL      0.027682
    120 C40        -8.9330    1.7770   -1.9640 ca        1 MOL     -0.091594
    121 C41        -9.0040    1.1850    0.3980 ca        1 MOL     -0.091594
    122 C42       -10.3090    1.8620   -1.9790 ca        1 MOL     -0.162604
    123 C43       -10.4300    1.0960    0.2310 ca        1 MOL     -0.162604
    124 C44       -11.1120    1.4140   -0.8980 ca        1 MOL     -0.066697
    125 H51        -4.2550    1.5980   -0.0020 hn        1 MOL      0.258241
    126 H52        -5.9510    0.1460   -1.7990 h1        1 MOL     -0.111953
    127 H53        -6.3640    2.3440   -1.3380 hc        1 MOL      0.066217
    128 H54        -6.5790    2.0610    0.4740 hc        1 MOL      0.066217
    129 H55        -8.4260    1.9130   -2.9090 ha        1 MOL      0.115961
    130 H56        -8.5400    1.0840    1.3710 ha        1 MOL      0.115961
    131 H57       -10.7580    2.1270   -2.9170 ha        1 MOL      0.104755
    132 H58       -10.9890    0.7190    1.0730 ha        1 MOL      0.104755
    133 H59       -12.1980    1.3820   -0.9060 ha        1 MOL      0.102177
    134 N12        -6.9770   -1.7870   -0.4730 n         1 MOL     -0.196175
    135 C45        -7.5380   -2.9360    0.3330 c3        1 MOL      0.196862
    136 C46        -6.5190   -3.7350    1.1480 c         1 MOL      0.237981
    137 O20        -6.8010   -4.2930    2.1660 o         1 MOL     -0.486797
    138 C47        -8.3120   -3.8130   -0.6560 c3        1 MOL     -0.046988
    139 C48        -8.5660   -2.7730   -1.8550 c3        1 MOL     -0.157103
    140 C49        -7.3000   -1.8970   -1.8820 c3        1 MOL      0.091906
    141 H60        -8.2660   -2.4620    0.9980 h1        1 MOL      0.035877
    142 H61        -7.6250   -4.5830   -1.0070 hc        1 MOL      0.035670
    143 H62        -9.2420   -4.2080   -0.2320 hc        1 MOL      0.035670
    144 H63        -8.6720   -3.1800   -2.8640 hc        1 MOL      0.044713
    145 H64        -9.3760   -2.0640   -1.6920 hc        1 MOL      0.044713
    146 H65        -6.5380   -2.4480   -2.4310 h1        1 MOL      0.015539
    147 H66        -7.5750   -0.9620   -2.3870 h1        1 MOL      0.015539
    148 N13        -5.2200   -3.7820    0.6600 n         1 MOL     -0.112034
    149 C50        -4.1810   -4.6230    1.2630 c3        1 MOL     -0.173790
    150 C51        -3.8260   -4.3560    2.7620 c         1 MOL      0.504356
    151 O21        -3.4390   -5.2380    3.4540 o         1 MOL     -0.554053
    152 C52        -2.9350   -4.7260    0.4120 c3        1 MOL      0.171855
    153 C53        -3.0150   -5.6160   -0.8370 c3        1 MOL     -0.479195
    154 C54        -1.8280   -5.4280   -1.7750 c         1 MOL      0.783712
    155 O22        -0.6830   -5.8050   -1.3590 o         1 MOL     -0.762286
    156 O23        -1.8160   -4.6660   -2.8300 o         1 MOL     -0.762286
    157 H67        -4.9620   -3.3820   -0.2360 hn        1 MOL      0.258761
    158 H68        -4.6250   -5.6210    1.2900 h1        1 MOL      0.084543
    159 H69        -2.0770   -4.9660    1.0310 hc        1 MOL      0.038443
    160 H70        -2.7210   -3.7060    0.1050 hc        1 MOL      0.038443
    161 H71        -4.0060   -5.4430   -1.2630 hc        1 MOL      0.090908
    162 H72        -2.8680   -6.5760   -0.3350 hc        1 MOL      0.090908
    163 N14        -4.1150   -3.1770    3.2430 n         1 MOL     -0.121401
    164 C55        -3.9780   -2.7980    4.6310 c3        1 MOL     -0.323278
    165 H73        -4.2120   -3.6530    5.2650 h1        1 MOL      0.116037
    166 H74        -2.9550   -2.4740    4.8210 h1        1 MOL      0.116037
    167 H75        -4.6660   -1.9820    4.8550 h1        1 MOL      0.116037
    168 H76        -4.3700   -2.4920    2.5450 hn        1 MOL      0.227780
    169 Ca1         0.7840   -3.7590   -2.3290 Ca        1 MOL      1.732809
    170 O24         3.0030   -5.0910   -1.6230 oh        1 MOL     -0.774211
    171 H77         3.1620   -6.0210   -1.7160 ho        1 MOL      0.388913
    172 H78         3.6310   -4.7970   -0.9650 ho        1 MOL      0.388913
    173 O25        -0.0110   -3.4610   -4.8190 oh        1 MOL     -0.774211
    174 H79         0.4360   -3.5820   -5.6510 ho        1 MOL      0.388913
    175 H80        -0.3700   -2.5720   -4.8650 ho        1 MOL      0.388913
    176 O26         1.0790   -5.9440   -3.9510 oh        1 MOL     -0.774211
    177 H81         0.5450   -6.7260   -3.8510 ho        1 MOL      0.388913
    178 H82         1.8060   -6.2120   -4.5100 ho        1 MOL      0.388913
@<TRIPOS>BOND
     1    1    2 1   
     2    1    4 1   
     3    1    5 1   
     4    1    6 1   
     5    2    3 2   
     6    2    7 1   
     7    7    8 1   
     8    7   15 1   
     9    8    9 1   
    10    8   11 1   
    11    8   16 1   
    12    9   10 2   
    13    9   19 1   
    14   11   12 1   
    15   11   17 1   
    16   11   18 1   
    17   12   13 1   
    18   12   14 1   
    19   19   20 1   
    20   19   24 1   
    21   20   21 1   
    22   20   23 1   
    23   20   25 1   
    24   21   22 2   
    25   21   29 1   
    26   23   26 1   
    27   23   27 1   
    28   23   28 1   
    29   29   30 1   
    30   29   37 1   
    31   30   31 1   
    32   30   33 1   
    33   30   38 1   
    34   31   32 2   
    35   31   41 1   
    36   33   34 1   
    37   33   39 1   
    38   33   40 1   
    39   34   35 1   
    40   34   36 1   
    41   41   42 1   
    42   41   45 1   
    43   42   43 1   
    44   42   46 1   
    45   42   47 1   
    46   43   44 2   
    47   43   48 1   
    48   48   49 1   
    49   48   56 1   
    50   49   50 1   
    51   49   52 1   
    52   49   57 1   
    53   50   51 2   
    54   50   62 1   
    55   52   53 1   
    56   52   58 1   
    57   52   59 1   
    58   53   54 1   
    59   53   55 2   
    60   54   60 1   
    61   54   61 1   
    62   62   63 1   
    63   62   66 1   
    64   63   64 1   
    65   63   67 1   
    66   63   68 1   
    67   64   65 2   
    68   64   69 1   
    69   69   70 1   
    70   69   76 1   
    71   70   71 1   
    72   70   73 1   
    73   70   77 1   
    74   71   72 2   
    75   71   83 1   
    76   73   74 1   
    77   73   75 1   
    78   73   78 1   
    79   74   80 1   
    80   74   81 1   
    81   74   82 1   
    82   75   79 1   
    83   83   84 1   
    84   83   91 1   
    85   84   85 1   
    86   84   87 1   
    87   84   92 1   
    88   85   86 2   
    89   85  102 1   
    90   87   88 1   
    91   87   89 1   
    92   87   93 1   
    93   88   90 1   
    94   88   94 1   
    95   88   95 1   
    96   89   96 1   
    97   89   97 1   
    98   89   98 1   
    99   90   99 1   
   100   90  100 1   
   101   90  101 1   
   102  102  103 1   
   103  102  110 1   
   104  103  104 1   
   105  103  106 1   
   106  103  111 1   
   107  104  105 2   
   108  104  114 1   
   109  106  107 1   
   110  106  112 1   
   111  106  113 1   
   112  107  108 1   
   113  107  109 1   
   114  114  115 1   
   115  114  125 1   
   116  115  116 1   
   117  115  118 1   
   118  115  126 1   
   119  116  117 2   
   120  116  134 1   
   121  118  119 1   
   122  118  127 1   
   123  118  128 1   
   124  119  120 ar  
   125  119  121 ar  
   126  120  122 ar  
   127  120  129 1   
   128  121  123 ar  
   129  121  130 1   
   130  122  124 ar  
   131  122  131 1   
   132  123  124 ar  
   133  123  132 1   
   134  124  133 1   
   135  134  135 1   
   136  134  140 1   
   137  135  136 1   
   138  135  138 1   
   139  135  141 1   
   140  136  137 2   
   141  136  148 1   
   142  138  139 1   
   143  138  142 1   
   144  138  143 1   
   145  139  140 1   
   146  139  144 1   
   147  139  145 1   
   148  140  146 1   
   149  140  147 1   
   150  148  149 1   
   151  148  157 1   
   152  149  150 1   
   153  149  152 1   
   154  149  158 1   
   155  150  151 2   
   156  150  163 1   
   157  152  153 1   
   158  152  159 1   
   159  152  160 1   
   160  153  154 1   
   161  153  161 1   
   162  153  162 1   
   163  154  155 1   
   164  154  156 1   
   165  163  164 1   
   166  163  168 1   
   167  164  165 1   
   168  164  166 1   
   169  164  167 1   
   170  170  171 1   
   171  170  172 1   
   172  173  174 1   
   173  173  175 1   
   174  176  177 1   
   175  176  178 1   
@<TRIPOS>SUBSTRUCTURE
     1 MOL         1 TEMP              0 ****  ****    0 ROOT
