@<TRIPOS>MOLECULE
MOL
  192   187     1     0     0
SMALL
resp


@<TRIPOS>ATOM
      1 C1          9.2020    2.1950    0.5060 c3        1 MOL     -0.416340
      2 C2          8.1550    1.2110    0.0060 c         1 MOL      0.723020
      3 O1          7.2600    0.8950    0.7940 o         1 MOL     -0.650485
      4 H1          9.2320    2.1720    1.5950 hc        1 MOL      0.102345
      5 H2         10.1790    1.9190    0.1100 hc        1 MOL      0.102345
      6 H3          8.9460    3.2000    0.1720 hc        1 MOL      0.102345
      7 N1          8.3020    0.8730   -1.2720 n         1 MOL     -0.510517
      8 C3          7.2090    0.2650   -2.0750 c3        1 MOL     -0.178881
      9 C4          6.7790   -1.2470   -1.8700 c         1 MOL      0.567068
     10 O2          6.4880   -1.9510   -2.8390 o         1 MOL     -0.443535
     11 C5          7.4640    0.6380   -3.5750 c3        1 MOL     -0.210513
     12 C6          8.7760   -0.0470   -4.1860 c         1 MOL      0.722298
     13 O3          8.9060   -0.0510   -5.4210 o         1 MOL     -0.648191
     14 O4          9.6330   -0.5760   -3.4250 o         1 MOL     -0.648191
     15 H4          9.2040    1.0590   -1.6890 hn        1 MOL      0.297710
     16 H5          6.3040    0.7600   -1.7370 h1        1 MOL      0.186739
     17 H6          7.6130    1.7020   -3.7330 hc        1 MOL      0.082451
     18 H7          6.5780    0.3710   -4.1560 hc        1 MOL      0.082451
     19 N2          6.8330   -1.6930   -0.5700 n         1 MOL     -0.386933
     20 C7          6.5790   -3.0670   -0.1150 c3        1 MOL     -0.079262
     21 C8          5.0950   -3.4600   -0.2810 c         1 MOL      0.514370
     22 O5          4.7890   -4.5830   -0.6060 o         1 MOL     -0.554074
     23 C9          7.0590   -3.2360    1.3120 c3        1 MOL     -0.007695
     24 C10         8.5610   -3.0910    1.4240 c3        1 MOL     -0.042212
     25 C11         9.0210   -3.4920    2.8650 c3        1 MOL     -0.106899
     26 C12        10.4980   -3.3650    2.8710 c3        1 MOL      0.200821
     27 N3         11.0870   -4.1310    4.0360 n4        1 MOL     -0.420146
     28 H8          7.0540   -0.9890    0.1190 hn        1 MOL      0.245861
     29 H9          7.1960   -3.7190   -0.7250 h1        1 MOL      0.119258
     30 H10         6.7100   -4.1770    1.7410 hc        1 MOL      0.041603
     31 H11         6.6420   -2.4570    1.9540 hc        1 MOL      0.041603
     32 H12         9.0180   -2.1550    1.1170 hc        1 MOL      0.044085
     33 H13         9.0330   -3.8350    0.7780 hc        1 MOL      0.044085
     34 H14         8.6340   -4.4950    3.0460 hc        1 MOL      0.037534
     35 H15         8.5580   -2.8430    3.6160 hc        1 MOL      0.037534
     36 H16        10.7180   -2.2960    2.9490 hx        1 MOL      0.048880
     37 H17        10.9610   -3.6200    1.9090 hx        1 MOL      0.048880
     38 H18        11.7760   -4.7980    3.7090 hn        1 MOL      0.294850
     39 H19        11.3670   -3.5240    4.7850 hn        1 MOL      0.294850
     40 H20        10.3490   -4.6630    4.4730 hn        1 MOL      0.294850
     41 N4          4.1150   -2.5920   -0.2470 n         1 MOL     -0.354881
     42 C13         4.0270   -1.3370    0.5280 c3        1 MOL      0.057369
     43 C14         3.9210   -0.1430   -0.3780 c         1 MOL     -0.015599
     44 O6          3.6690   -0.1570   -1.5960 o         1 MOL     -0.401548
     45 C15         2.8690   -1.4690    1.6390 c3        1 MOL      0.011379
     46 C16         1.5670   -1.9820    1.0080 c         1 MOL      0.598326
     47 O7          1.1440   -1.2070    0.1070 o         1 MOL     -0.673089
     48 O8          1.0680   -3.0670    1.3630 o         1 MOL     -0.673089
     49 H21         3.3710   -2.8250   -0.8940 hn        1 MOL      0.361961
     50 H22         4.9130   -1.1950    1.1380 h1        1 MOL      0.086162
     51 H23         2.6920   -0.4640    2.0200 hc        1 MOL     -0.033750
     52 H24         3.2080   -2.1680    2.3960 hc        1 MOL     -0.033750
     53 N5          4.0980    0.9750    0.2650 n         1 MOL      0.068855
     54 C17         4.0190    2.3540   -0.3510 c3        1 MOL     -0.563483
     55 C18         2.6470    2.7630   -0.7960 c         1 MOL      0.860044
     56 O9          1.6630    2.0710   -0.6350 o         1 MOL     -0.612465
     57 H25         4.2690    0.9410    1.2590 hn        1 MOL      0.224015
     58 H26         4.4620    2.2500   -1.3430 h1        1 MOL      0.206049
     59 H27         4.2910    3.1290    0.3700 h1        1 MOL      0.206049
     60 N6          2.4930    4.0130   -1.3480 n         1 MOL     -0.684069
     61 C19         1.2930    4.7140   -1.7530 c3        1 MOL      0.241582
     62 C20         1.5750    6.2230   -1.7340 c         1 MOL      0.480633
     63 O10         2.6290    6.6400   -2.1870 o         1 MOL     -0.506928
     64 C21         0.6770    4.3600   -3.1270 c3        1 MOL     -0.089655
     65 C22         0.4430    2.8510   -3.2120 c         1 MOL      0.603757
     66 O11        -0.5800    2.3140   -2.6530 o         1 MOL     -0.635984
     67 O12         1.1720    2.1620   -4.0110 o         1 MOL     -0.635984
     68 H28         3.2960    4.6110   -1.4280 hn        1 MOL      0.314658
     69 H29         0.4880    4.4490   -1.0650 h1        1 MOL      0.041136
     70 H30         1.3640    4.6470   -3.9210 hc        1 MOL      0.026144
     71 H31        -0.3000    4.8510   -3.2000 hc        1 MOL      0.026144
     72 N7          0.6290    7.1450   -1.3770 n         1 MOL     -0.527073
     73 C23        -0.8480    6.9860   -1.3240 c3        1 MOL      0.045820
     74 C24        -1.2040    6.1660   -0.0630 c         1 MOL      0.642359
     75 O13        -0.6150    6.3850    1.0140 o         1 MOL     -0.542928
     76 H32         0.8720    8.1220   -1.4510 hn        1 MOL      0.340341
     77 H33        -1.1750    6.4010   -2.1830 h1        1 MOL      0.040890
     78 H34        -1.3600    7.9500   -1.2950 h1        1 MOL      0.040890
     79 N8         -2.2270    5.3630   -0.1420 n         1 MOL     -0.659131
     80 C25        -2.7770    4.5520    0.9600 c3        1 MOL      0.047388
     81 C26        -1.9010    3.3750    1.2990 c         1 MOL      0.592492
     82 O14        -1.3950    2.7430    0.3890 o         1 MOL     -0.667513
     83 C27        -4.2340    4.2040    0.6010 c3        1 MOL      0.442988
     84 C28        -5.0980    5.4260    0.4030 c3        1 MOL     -0.238613
     85 O15        -4.7110    3.5300    1.7580 oh        1 MOL     -0.701998
     86 H35        -2.5980    5.1690   -1.0550 hn        1 MOL      0.315326
     87 H36        -2.8080    5.1530    1.8760 h1        1 MOL      0.095181
     88 H37        -4.2860    3.6090   -0.3070 h1        1 MOL     -0.022397
     89 H38        -5.5090    3.0550    1.5380 ho        1 MOL      0.407430
     90 H39        -6.1060    5.1310    0.0920 hc        1 MOL      0.060621
     91 H40        -5.1260    6.0390    1.3070 hc        1 MOL      0.060621
     92 H41        -4.7290    5.9860   -0.4540 hc        1 MOL      0.060621
     93 N9         -1.6880    3.1310    2.5600 n         1 MOL     -0.396007
     94 C29        -0.8450    2.1230    3.1560 c3        1 MOL      0.002188
     95 C30        -1.2880    0.6930    2.8300 c         1 MOL      0.281469
     96 O16        -0.9920    0.2250    1.7530 o         1 MOL     -0.349407
     97 C31         0.6190    2.2750    2.7810 c3        1 MOL      0.428429
     98 C32         1.1130    3.7220    3.0050 c3        1 MOL      0.044491
     99 C33         1.4880    1.2570    3.5960 c3        1 MOL     -0.512814
    100 C34         0.9460    4.2120    4.5150 c3        1 MOL     -0.226549
    101 H42        -2.2590    3.6890    3.1810 hn        1 MOL      0.283121
    102 H43        -1.0150    2.3130    4.2150 h1        1 MOL      0.030606
    103 H44         0.8200    2.1890    1.7080 hc        1 MOL     -0.075851
    104 H45         0.5830    4.4560    2.4050 hc        1 MOL     -0.014119
    105 H46         2.1580    3.6710    2.7260 hc        1 MOL     -0.014119
    106 H47         2.5450    1.4190    3.3900 hc        1 MOL      0.122876
    107 H48         1.4280    1.3930    4.6780 hc        1 MOL      0.122876
    108 H49         1.1880    0.2680    3.2440 hc        1 MOL      0.122876
    109 H50        -0.1210    4.3810    4.6690 hc        1 MOL      0.048996
    110 H51         1.3700    3.4350    5.1540 hc        1 MOL      0.048996
    111 H52         1.3830    5.1830    4.7630 hc        1 MOL      0.048996
    112 N10        -2.0820    0.0920    3.6900 n         1 MOL     -0.348485
    113 C35        -2.3060   -1.4110    3.6960 c3        1 MOL     -0.016749
    114 C36        -3.6390   -1.8260    3.2130 c         1 MOL      0.456410
    115 O17        -3.9040   -2.9980    2.8680 o         1 MOL     -0.529817
    116 C37        -1.9680   -2.1330    5.0670 c3        1 MOL      0.241102
    117 C38        -2.8010   -1.5470    6.2530 c3        1 MOL     -0.199169
    118 O18        -0.6530   -1.7210    5.4010 oh        1 MOL     -0.581514
    119 H53        -2.2980    0.5840    4.5460 hn        1 MOL      0.300679
    120 H54        -1.6840   -1.8880    2.9420 h1        1 MOL      0.099968
    121 H55        -2.1500   -3.2080    5.1150 h1        1 MOL      0.061927
    122 H56        -0.1090   -2.4000    4.9940 ho        1 MOL      0.392547
    123 H57        -2.8490   -2.3240    7.0130 hc        1 MOL      0.057557
    124 H58        -2.3190   -0.6850    6.7210 hc        1 MOL      0.057557
    125 H59        -3.8570   -1.3380    6.0560 hc        1 MOL      0.057557
    126 N11        -4.6190   -0.8830    3.2250 n         1 MOL     -0.130435
    127 C39        -5.9710   -1.0180    2.6600 c3        1 MOL     -0.336095
    128 C40        -5.9320   -0.9120    1.1640 c         1 MOL      0.729195
    129 O19        -5.1900   -0.1120    0.6130 o         1 MOL     -0.600130
    130 C41        -6.9260   -0.0690    3.3050 c3        1 MOL      0.533331
    131 C42        -7.1700   -0.4290    4.7530 c3        1 MOL     -0.251831
    132 O20        -6.6550    1.2830    3.1990 oh        1 MOL     -0.581121
    133 H60        -4.3770    0.0350    3.5860 hn        1 MOL      0.156896
    134 H61        -6.3270   -2.0310    2.8460 h1        1 MOL      0.103868
    135 H62        -7.8820   -0.2240    2.7880 h1        1 MOL     -0.063497
    136 H63        -6.6350    1.5300    2.2750 ho        1 MOL      0.340679
    137 H64        -6.2160   -0.4560    5.2740 hc        1 MOL      0.063311
    138 H65        -7.9040    0.2560    5.1680 hc        1 MOL      0.063311
    139 H66        -7.5930   -1.4340    4.7670 hc        1 MOL      0.063311
    140 N12        -6.7640   -1.7000    0.5610 n         1 MOL     -0.719100
    141 C43        -6.7860   -1.8530   -0.8800 c3        1 MOL      0.480004
    142 C44        -5.4710   -2.2820   -1.5160 c         1 MOL      0.216392
    143 O21        -5.2150   -2.0130   -2.7050 o         1 MOL     -0.498174
    144 C45        -7.5910   -0.6930   -1.5360 c3        1 MOL     -0.508475
    145 C46        -8.4670   -1.0730   -2.7630 c3        1 MOL      0.295947
    146 C47        -9.3950    0.1020   -3.1890 c3        1 MOL     -0.118898
    147 C48       -10.2990    0.1310   -4.4220 c3        1 MOL     -0.110772
    148 N13       -11.4390   -0.9020   -4.3750 n4        1 MOL     -0.231030
    149 H67        -7.0470   -2.4870    1.1370 hn        1 MOL      0.341995
    150 H68        -7.3390   -2.7800   -1.0510 h1        1 MOL      0.017599
    151 H69        -6.9520    0.1440   -1.8400 hc        1 MOL      0.144681
    152 H70        -8.4140   -0.3410   -0.9130 hc        1 MOL      0.144681
    153 H71        -9.1130   -1.8840   -2.4330 hc        1 MOL     -0.034322
    154 H72        -7.8980   -1.3640   -3.6430 hc        1 MOL     -0.034322
    155 H73        -8.7030    0.9240   -3.3820 hc        1 MOL      0.047216
    156 H74       -10.0340    0.3740   -2.3580 hc        1 MOL      0.047216
    157 H75        -9.7320   -0.2480   -5.2680 hx        1 MOL      0.137534
    158 H76       -10.4890    1.1380   -4.7900 hx        1 MOL      0.137534
    159 H77       -11.0940   -1.8160   -4.1200 hn        1 MOL      0.221030
    160 H78       -12.0940   -0.5910   -3.6650 hn        1 MOL      0.221030
    161 H79       -11.9370   -0.8710   -5.2420 hn        1 MOL      0.221030
    162 N14        -4.5600   -2.9940   -0.8360 n         1 MOL     -0.234469
    163 C49        -3.2540   -3.4900   -1.2920 c3        1 MOL      0.159298
    164 C50        -2.1380   -3.0860   -0.3620 c         1 MOL      0.390074
    165 O22        -1.7040   -1.9210   -0.4490 o         1 MOL     -0.625468
    166 C51        -3.2850   -4.9460   -1.7920 c3        1 MOL      0.070753
    167 C52        -4.1200   -5.1350   -3.1070 c3        1 MOL     -0.363829
    168 C53        -4.3610   -6.5980   -3.3980 c         1 MOL      0.716694
    169 O23        -3.9000   -7.1400   -4.4830 o         1 MOL     -0.632747
    170 O24        -4.9900   -7.3140   -2.6050 o         1 MOL     -0.632747
    171 H80        -4.7990   -3.2650    0.1090 hn        1 MOL      0.227587
    172 H81        -2.9920   -3.0600   -2.2620 h1        1 MOL      0.107114
    173 H82        -3.8090   -5.5990   -1.0840 hc        1 MOL      0.012763
    174 H83        -2.2580   -5.2730   -1.9180 hc        1 MOL      0.012763
    175 H84        -3.5400   -4.6090   -3.8710 hc        1 MOL      0.086477
    176 H85        -5.1010   -4.7110   -2.9320 hc        1 MOL      0.086477
    177 N15        -1.5030   -3.9250    0.4840 n         1 MOL     -0.376562
    178 C54        -1.9130   -5.2730    0.9900 c3        1 MOL     -0.012294
    179 H86        -2.7080   -5.1570    1.7280 h1        1 MOL      0.038888
    180 H87        -2.2750   -5.8790    0.1590 h1        1 MOL      0.038888
    181 H88        -1.0570   -5.7640    1.4530 h1        1 MOL      0.038888
    182 H89        -0.6080   -3.5370    0.7560 hn        1 MOL      0.388821
    183 Ca1        -0.5560    0.4300   -0.9260 Ca        1 MOL      1.718904
    184 O25        -3.3680    0.6870   -1.3790 oh        1 MOL     -0.828442
    185 H90        -3.9220    0.2230   -0.7550 ho        1 MOL      0.400929
    186 H91        -3.8950    1.4360   -1.6530 ho        1 MOL      0.400929
    187 O26         1.2660   -0.1460   -2.8160 oh        1 MOL     -0.828442
    188 H92         1.2600    0.6890   -3.2900 ho        1 MOL      0.400929
    189 H93         2.1340   -0.2050   -2.4350 ho        1 MOL      0.400929
    190 O27        -1.7500   -0.4860   -3.3220 oh        1 MOL     -0.828442
    191 H94        -2.0770   -1.3270   -3.6420 ho        1 MOL      0.400929
    192 H95        -2.5110    0.1000   -3.3850 ho        1 MOL      0.400929
@<TRIPOS>BOND
     1    1    2 1   
     2    1    4 1   
     3    1    5 1   
     4    1    6 1   
     5    2    3 2   
     6    2    7 1   
     7    7    8 1   
     8    7   15 1   
     9    8    9 1   
    10    8   11 1   
    11    8   16 1   
    12    9   10 2   
    13    9   19 1   
    14   11   12 1   
    15   11   17 1   
    16   11   18 1   
    17   12   13 1   
    18   12   14 1   
    19   19   20 1   
    20   19   28 1   
    21   20   21 1   
    22   20   23 1   
    23   20   29 1   
    24   21   22 2   
    25   21   41 1   
    26   23   24 1   
    27   23   30 1   
    28   23   31 1   
    29   24   25 1   
    30   24   32 1   
    31   24   33 1   
    32   25   26 1   
    33   25   34 1   
    34   25   35 1   
    35   26   27 1   
    36   26   36 1   
    37   26   37 1   
    38   27   38 1   
    39   27   39 1   
    40   27   40 1   
    41   41   42 1   
    42   41   49 1   
    43   42   43 1   
    44   42   45 1   
    45   42   50 1   
    46   43   44 2   
    47   43   53 1   
    48   45   46 1   
    49   45   51 1   
    50   45   52 1   
    51   46   47 1   
    52   46   48 1   
    53   53   54 1   
    54   53   57 1   
    55   54   55 1   
    56   54   58 1   
    57   54   59 1   
    58   55   56 2   
    59   55   60 1   
    60   60   61 1   
    61   60   68 1   
    62   61   62 1   
    63   61   64 1   
    64   61   69 1   
    65   62   63 2   
    66   62   72 1   
    67   64   65 1   
    68   64   70 1   
    69   64   71 1   
    70   65   66 1   
    71   65   67 1   
    72   72   73 1   
    73   72   76 1   
    74   73   74 1   
    75   73   77 1   
    76   73   78 1   
    77   74   75 2   
    78   74   79 1   
    79   79   80 1   
    80   79   86 1   
    81   80   81 1   
    82   80   83 1   
    83   80   87 1   
    84   81   82 2   
    85   81   93 1   
    86   83   84 1   
    87   83   85 1   
    88   83   88 1   
    89   84   90 1   
    90   84   91 1   
    91   84   92 1   
    92   85   89 1   
    93   93   94 1   
    94   93  101 1   
    95   94   95 1   
    96   94   97 1   
    97   94  102 1   
    98   95   96 2   
    99   95  112 1   
   100   97   98 1   
   101   97   99 1   
   102   97  103 1   
   103   98  100 1   
   104   98  104 1   
   105   98  105 1   
   106   99  106 1   
   107   99  107 1   
   108   99  108 1   
   109  100  109 1   
   110  100  110 1   
   111  100  111 1   
   112  112  113 1   
   113  112  119 1   
   114  113  114 1   
   115  113  116 1   
   116  113  120 1   
   117  114  115 2   
   118  114  126 1   
   119  116  117 1   
   120  116  118 1   
   121  116  121 1   
   122  117  123 1   
   123  117  124 1   
   124  117  125 1   
   125  118  122 1   
   126  126  127 1   
   127  126  133 1   
   128  127  128 1   
   129  127  130 1   
   130  127  134 1   
   131  128  129 2   
   132  128  140 1   
   133  130  131 1   
   134  130  132 1   
   135  130  135 1   
   136  131  137 1   
   137  131  138 1   
   138  131  139 1   
   139  132  136 1   
   140  140  141 1   
   141  140  149 1   
   142  141  142 1   
   143  141  144 1   
   144  141  150 1   
   145  142  143 2   
   146  142  162 1   
   147  144  145 1   
   148  144  151 1   
   149  144  152 1   
   150  145  146 1   
   151  145  153 1   
   152  145  154 1   
   153  146  147 1   
   154  146  155 1   
   155  146  156 1   
   156  147  148 1   
   157  147  157 1   
   158  147  158 1   
   159  148  159 1   
   160  148  160 1   
   161  148  161 1   
   162  162  163 1   
   163  162  171 1   
   164  163  164 1   
   165  163  166 1   
   166  163  172 1   
   167  164  165 2   
   168  164  177 1   
   169  166  167 1   
   170  166  173 1   
   171  166  174 1   
   172  167  168 1   
   173  167  175 1   
   174  167  176 1   
   175  168  169 1   
   176  168  170 1   
   177  177  178 1   
   178  177  182 1   
   179  178  179 1   
   180  178  180 1   
   181  178  181 1   
   182  184  185 1   
   183  184  186 1   
   184  187  188 1   
   185  187  189 1   
   186  190  191 1   
   187  190  192 1   
@<TRIPOS>SUBSTRUCTURE
     1 MOL         1 TEMP              0 ****  ****    0 ROOT
