@<TRIPOS>MOLECULE
MOL
  189   185     1     0     0
SMALL
resp


@<TRIPOS>ATOM
      1 C1          9.8170    1.3940    1.0870 c3        1 MOL     -0.538766
      2 C2          8.4850    0.8630    0.4690 c         1 MOL      0.679225
      3 O1          7.4540    0.7910    1.1350 o         1 MOL     -0.609458
      4 H1          9.6700    2.4130    1.4460 hc        1 MOL      0.144520
      5 H2         10.1110    0.7550    1.9200 hc        1 MOL      0.144520
      6 H3         10.5990    1.3860    0.3290 hc        1 MOL      0.144520
      7 N1          8.5540    0.3930   -0.8200 n         1 MOL     -0.465794
      8 C3          7.4440    0.1140   -1.7410 c3        1 MOL      0.168147
      9 C4          6.8240   -1.2790   -1.4060 c         1 MOL      0.461005
     10 O2          6.0800   -1.7600   -2.3120 o         1 MOL     -0.451267
     11 C5          7.7110    0.4630   -3.2140 c3        1 MOL     -0.258342
     12 C6          9.0340   -0.2050   -3.6130 c         1 MOL      0.743067
     13 O3          9.1250   -1.3860   -3.9300 o         1 MOL     -0.662176
     14 O4         10.0310    0.5700   -3.5090 o         1 MOL     -0.662176
     15 H4          9.4710    0.5240   -1.2370 hn        1 MOL      0.227180
     16 H5          6.6770    0.8220   -1.4620 h1        1 MOL      0.073215
     17 H6          7.7570    1.5390   -3.3870 hc        1 MOL      0.076620
     18 H7          6.9280    0.0910   -3.8620 hc        1 MOL      0.076620
     19 N2          6.9750   -1.7430   -0.1710 n         1 MOL     -0.248786
     20 C7          6.5460   -3.1090    0.2730 c3        1 MOL      0.105749
     21 C8          5.0920   -3.6320   -0.0070 c         1 MOL      0.390771
     22 O5          4.9370   -4.8100   -0.4460 o         1 MOL     -0.512032
     23 C9          6.7590   -3.2810    1.7910 c3        1 MOL      0.008704
     24 C10         8.2590   -3.0910    2.1170 c3        1 MOL     -0.008930
     25 C11         8.5990   -3.3010    3.5860 c3        1 MOL     -0.048176
     26 C12        10.1070   -3.0750    3.8440 c3        1 MOL      0.091529
     27 N3         10.3250   -3.2310    5.2840 n4        1 MOL     -0.151073
     28 H8          7.6270   -1.2770    0.4340 hn        1 MOL      0.067492
     29 H9          7.1930   -3.8780   -0.1460 h1        1 MOL      0.056485
     30 H10         6.3870   -4.2600    2.1240 hc        1 MOL      0.012904
     31 H11         6.2640   -2.4650    2.3190 hc        1 MOL      0.012904
     32 H12         8.3630   -2.0300    1.9060 hc        1 MOL      0.033761
     33 H13         8.8510   -3.6940    1.4300 hc        1 MOL      0.033761
     34 H14         8.3350   -4.3290    3.8420 hc        1 MOL      0.030081
     35 H15         7.9720   -2.6120    4.1530 hc        1 MOL      0.030081
     36 H16        10.4730   -2.0860    3.5600 hx        1 MOL      0.052356
     37 H17        10.6930   -3.8110    3.2850 hx        1 MOL      0.052356
     38 H18        10.1330   -4.1560    5.6140 hn        1 MOL      0.221170
     39 H19        11.3320   -3.2500    5.3720 hn        1 MOL      0.221170
     40 H20         9.8770   -2.5730    5.9150 hn        1 MOL      0.221170
     41 N4          4.0630   -2.7740    0.1130 n         1 MOL     -0.367805
     42 C13         4.0570   -1.4260    0.7020 c3        1 MOL      0.012141
     43 C14         3.9590   -0.3830   -0.3730 c         1 MOL     -0.003069
     44 O6          3.6300   -0.6030   -1.5350 o         1 MOL     -0.305820
     45 C15         2.9180   -1.3210    1.7650 c3        1 MOL     -0.321045
     46 C16         1.5200   -1.6390    1.1650 c         1 MOL      0.808514
     47 O7          0.9160   -0.6900    0.6160 o         1 MOL     -0.714718
     48 O8          1.1480   -2.8520    1.2240 o         1 MOL     -0.714718
     49 H21         3.2390   -3.0940   -0.3730 hn        1 MOL      0.382665
     50 H22         4.9620   -1.1410    1.2430 h1        1 MOL      0.197428
     51 H23         2.7920   -0.3530    2.2610 hc        1 MOL      0.051983
     52 H24         3.1230   -2.1650    2.4250 hc        1 MOL      0.051983
     53 N5          4.1060    0.9010    0.0560 n         1 MOL     -0.263389
     54 C17         4.0210    2.0540   -0.8280 c3        1 MOL      0.135681
     55 C18         2.6490    2.6130   -1.1720 c         1 MOL      0.580005
     56 O9          1.5800    2.1190   -0.7350 o         1 MOL     -0.630977
     57 H25         4.4690    1.1260    0.9650 hn        1 MOL      0.285082
     58 H26         4.7480    2.0480   -1.6380 h1        1 MOL      0.006067
     59 H27         4.4720    2.8650   -0.2670 h1        1 MOL      0.006067
     60 N6          2.6590    3.6600   -1.9240 n         1 MOL     -0.454851
     61 C19         1.4860    4.2440   -2.5540 c3        1 MOL      0.046347
     62 C20         1.6800    5.7740   -2.9700 c         1 MOL      0.499617
     63 O10         2.8420    6.1870   -3.1670 o         1 MOL     -0.510875
     64 C21         1.1630    3.4230   -3.8370 c3        1 MOL     -0.395851
     65 C22         0.7830    2.0100   -3.5320 c         1 MOL      0.807869
     66 O11        -0.3830    1.7710   -3.1130 o         1 MOL     -0.712888
     67 O12         1.5580    1.0530   -3.8570 o         1 MOL     -0.712888
     68 H28         3.5640    4.0300   -2.1890 hn        1 MOL      0.296906
     69 H29         0.7170    4.1640   -1.7940 h1        1 MOL      0.120123
     70 H30         2.0340    3.4510   -4.4830 hc        1 MOL      0.130794
     71 H31         0.3950    3.9300   -4.4210 hc        1 MOL      0.130794
     72 N7          0.6050    6.6100   -3.0820 n         1 MOL     -0.476805
     73 C23        -0.8120    6.3250   -2.7230 c3        1 MOL      0.092433
     74 C24        -1.2310    5.9570   -1.2920 c         1 MOL      0.432839
     75 O13        -0.4870    6.0990   -0.2670 o         1 MOL     -0.510791
     76 H32         0.7950    7.5730   -3.3250 hn        1 MOL      0.316385
     77 H33        -1.0700    5.4390   -3.3060 h1        1 MOL      0.039930
     78 H34        -1.4210    7.1290   -3.1360 h1        1 MOL      0.039930
     79 N8         -2.4400    5.4820   -1.1290 n         1 MOL     -0.410987
     80 C25        -3.0260    5.0920    0.1220 c3        1 MOL      0.042149
     81 C26        -2.2250    3.8870    0.7470 c         1 MOL      0.987553
     82 O14        -1.6760    3.1000   -0.0230 o         1 MOL     -0.736671
     83 C27        -4.5190    4.6200   -0.1170 c3        1 MOL      0.172595
     84 C28        -4.6540    3.1540   -0.6030 c3        1 MOL     -0.139778
     85 O15        -5.1570    5.4360   -1.1080 oh        1 MOL     -0.598605
     86 H35        -3.0820    5.4890   -1.9030 hn        1 MOL      0.312664
     87 H36        -3.0280    5.8440    0.9180 h1        1 MOL      0.049419
     88 H37        -5.0290    4.6800    0.8500 h1        1 MOL     -0.021000
     89 H38        -6.0700    5.2230   -0.9220 ho        1 MOL      0.410396
     90 H39        -4.0250    2.9670   -1.4800 hc        1 MOL      0.035715
     91 H40        -4.3300    2.4940    0.2040 hc        1 MOL      0.035715
     92 H41        -5.6780    2.9310   -0.9030 hc        1 MOL      0.035715
     93 N9         -1.9930    3.9520    2.0430 n         1 MOL     -0.895798
     94 C29        -1.2390    3.0280    2.9470 c3        1 MOL      0.315364
     95 C30        -1.6670    1.5330    2.8170 c         1 MOL      0.641060
     96 O16        -1.6240    0.9340    1.7410 o         1 MOL     -0.578889
     97 C31         0.2820    3.1770    2.7400 c3        1 MOL      0.060065
     98 C32         0.8300    4.6430    3.0060 c3        1 MOL     -0.064820
     99 C33         1.1020    2.1570    3.5880 c3        1 MOL     -0.579859
    100 C34         0.8110    5.1050    4.4550 c3        1 MOL     -0.201694
    101 H42        -2.3420    4.8050    2.4640 hn        1 MOL      0.342954
    102 H43        -1.4350    3.1780    4.0030 h1        1 MOL      0.028797
    103 H44         0.2820    2.9260    1.6760 hc        1 MOL      0.042497
    104 H45         0.2270    5.3260    2.3960 hc        1 MOL      0.071976
    105 H46         1.8660    4.6910    2.6880 hc        1 MOL      0.071976
    106 H47         0.7340    2.0040    4.6000 hc        1 MOL      0.153202
    107 H48         1.1380    1.1370    3.1880 hc        1 MOL      0.153202
    108 H49         2.1180    2.5200    3.6380 hc        1 MOL      0.153202
    109 H50        -0.0820    4.8240    5.0240 hc        1 MOL      0.051968
    110 H51         1.6440    4.6380    4.9830 hc        1 MOL      0.051968
    111 H52         1.0520    6.1650    4.5830 hc        1 MOL      0.051968
    112 N10        -2.3530    0.9240    3.8360 n         1 MOL     -0.621875
    113 C35        -2.5450   -0.5540    3.9130 c3        1 MOL      0.067668
    114 C36        -3.8420   -1.0340    3.2790 c         1 MOL      0.406461
    115 O17        -4.1620   -2.1620    3.4600 o         1 MOL     -0.508811
    116 C37        -2.4480   -0.9540    5.3810 c3        1 MOL      0.601657
    117 C38        -3.5630   -0.4980    6.2990 c3        1 MOL     -0.415962
    118 O18        -1.1760   -0.6750    5.8830 oh        1 MOL     -0.682603
    119 H53        -2.5730    1.4450    4.6730 hn        1 MOL      0.259120
    120 H54        -1.7830   -1.0490    3.3100 h1        1 MOL      0.031392
    121 H55        -2.5570   -2.0370    5.3700 h1        1 MOL     -0.064566
    122 H56        -0.4820   -1.1600    5.4310 ho        1 MOL      0.419552
    123 H57        -3.5380    0.5600    6.5500 hc        1 MOL      0.112949
    124 H58        -4.5350   -0.6880    5.8420 hc        1 MOL      0.112949
    125 H59        -3.4670   -0.9770    7.2730 hc        1 MOL      0.112949
    126 N11        -4.7130   -0.2420    2.6280 n         1 MOL     -0.171652
    127 C39        -6.0510   -0.6330    2.1080 c3        1 MOL     -0.157449
    128 C40        -5.9860   -1.0720    0.6360 c         1 MOL      0.711066
    129 O19        -5.3560   -0.4260   -0.2160 o         1 MOL     -0.526426
    130 C41        -7.0700    0.5420    2.1590 c3        1 MOL      0.179701
    131 C42        -7.5420    0.6410    3.6000 c3        1 MOL     -0.420851
    132 O20        -6.4630    1.8310    1.9320 oh        1 MOL     -0.565571
    133 H60        -4.4120    0.7190    2.5150 hn        1 MOL      0.164831
    134 H61        -6.5340   -1.4100    2.7040 h1        1 MOL      0.112713
    135 H62        -7.8720    0.2980    1.4660 h1        1 MOL      0.138961
    136 H63        -6.0000    2.1410    2.7120 ho        1 MOL      0.395205
    137 H64        -8.4000    1.2830    3.3910 hc        1 MOL      0.113191
    138 H65        -7.9830   -0.3030    3.9360 hc        1 MOL      0.113191
    139 H66        -6.8880    1.1530    4.3070 hc        1 MOL      0.113191
    140 N12        -6.5760   -2.2600    0.2940 n         1 MOL     -0.709613
    141 C43        -6.6540   -2.8510   -1.0630 c3        1 MOL      0.203743
    142 C44        -5.2770   -2.9890   -1.7440 c         1 MOL      0.528736
    143 O21        -5.1700   -2.7050   -2.9790 o         1 MOL     -0.536145
    144 C45        -7.7510   -2.2400   -1.9130 c3        1 MOL     -0.434490
    145 C46        -9.0080   -2.0260   -1.1250 c3        1 MOL      0.266166
    146 C47       -10.0640   -1.5570   -2.1410 c3        1 MOL     -0.086719
    147 C48       -11.1640   -0.7680   -1.4900 c3        1 MOL      0.134164
    148 N13       -12.0080   -1.6280   -0.6740 n4        1 MOL     -0.211170
    149 H67        -7.0680   -2.7300    1.0310 hn        1 MOL      0.309706
    150 H68        -7.0590   -3.8530   -1.0250 h1        1 MOL      0.071841
    151 H69        -7.9900   -2.9470   -2.7060 hc        1 MOL      0.137056
    152 H70        -7.4250   -1.2840   -2.3430 hc        1 MOL      0.137056
    153 H71        -8.8720   -1.2880   -0.3460 hc        1 MOL     -0.056011
    154 H72        -9.3720   -2.9240   -0.6240 hc        1 MOL     -0.056011
    155 H73       -10.4700   -2.4150   -2.6790 hc        1 MOL      0.063217
    156 H74        -9.6490   -0.8470   -2.8530 hc        1 MOL      0.063217
    157 H75       -11.7580   -0.2030   -2.2050 hx        1 MOL      0.025711
    158 H76       -10.7420   -0.0700   -0.7730 hx        1 MOL      0.025711
    159 H77       -11.4870   -2.3280   -0.1570 hn        1 MOL      0.195672
    160 H78       -12.5060   -1.0480   -0.0160 hn        1 MOL      0.195672
    161 H79       -12.7310   -2.0980   -1.2010 hn        1 MOL      0.195672
    162 N14        -4.2450   -3.3090   -1.0000 n         1 MOL     -0.571124
    163 C49        -2.9070   -3.6300   -1.5650 c3        1 MOL      0.321162
    164 C50        -1.8610   -3.1170   -0.6170 c         1 MOL      0.448521
    165 O22        -1.4190   -1.9850   -0.9160 o         1 MOL     -0.657902
    166 C51        -2.8350   -5.0870   -1.9620 c3        1 MOL      0.089519
    167 C52        -3.6350   -5.3230   -3.2440 c3        1 MOL     -0.206852
    168 C53        -3.2820   -6.7180   -3.7980 c         1 MOL      0.663994
    169 O23        -2.4050   -6.7450   -4.7310 o         1 MOL     -0.611799
    170 O24        -3.9220   -7.6800   -3.3740 o         1 MOL     -0.611799
    171 H80        -4.3430   -3.2830    0.0020 hn        1 MOL      0.314517
    172 H81        -2.7860   -3.0650   -2.4870 h1        1 MOL      0.063638
    173 H82        -3.3150   -5.7520   -1.2470 hc        1 MOL     -0.016144
    174 H83        -1.7870   -5.3770   -2.1030 hc        1 MOL     -0.016144
    175 H84        -3.2880   -4.5770   -3.9670 hc        1 MOL      0.039614
    176 H85        -4.6860   -5.2810   -2.9650 hc        1 MOL      0.039614
    177 N15        -1.3760   -3.7910    0.4240 n         1 MOL     -0.318304
    178 C54        -1.7630   -5.1030    1.0240 c3        1 MOL     -0.061388
    179 H86        -1.7870   -5.8660    0.2460 h1        1 MOL      0.048708
    180 H87        -1.0350   -5.3840    1.7850 h1        1 MOL      0.048708
    181 H88        -2.7510   -5.0190    1.4790 h1        1 MOL      0.048708
    182 H89        -0.5710   -3.3170    0.8230 hn        1 MOL      0.334782
    183 Ca1        -0.6640    0.5590   -0.7750 Ca        1 MOL      1.771669
    184 O25         1.0010   -0.9560   -2.3420 oh        1 MOL     -0.925734
    185 H90         1.2210   -0.2050   -2.8980 ho        1 MOL      0.453098
    186 H91         1.8470   -1.2340   -1.9750 ho        1 MOL      0.453098
    187 O26        -3.1840    0.5390   -1.6450 oh        1 MOL     -0.925734
    188 H92        -3.5540    0.9600   -2.4250 ho        1 MOL      0.453098
    189 H93        -3.9390    0.2390   -1.1500 ho        1 MOL      0.453098
@<TRIPOS>BOND
     1    1    2 1   
     2    1    4 1   
     3    1    5 1   
     4    1    6 1   
     5    2    3 2   
     6    2    7 1   
     7    7    8 1   
     8    7   15 1   
     9    8    9 1   
    10    8   11 1   
    11    8   16 1   
    12    9   10 2   
    13    9   19 1   
    14   11   12 1   
    15   11   17 1   
    16   11   18 1   
    17   12   13 1   
    18   12   14 1   
    19   19   20 1   
    20   19   28 1   
    21   20   21 1   
    22   20   23 1   
    23   20   29 1   
    24   21   22 2   
    25   21   41 1   
    26   23   24 1   
    27   23   30 1   
    28   23   31 1   
    29   24   25 1   
    30   24   32 1   
    31   24   33 1   
    32   25   26 1   
    33   25   34 1   
    34   25   35 1   
    35   26   27 1   
    36   26   36 1   
    37   26   37 1   
    38   27   38 1   
    39   27   39 1   
    40   27   40 1   
    41   41   42 1   
    42   41   49 1   
    43   42   43 1   
    44   42   45 1   
    45   42   50 1   
    46   43   44 2   
    47   43   53 1   
    48   45   46 1   
    49   45   51 1   
    50   45   52 1   
    51   46   47 1   
    52   46   48 1   
    53   53   54 1   
    54   53   57 1   
    55   54   55 1   
    56   54   58 1   
    57   54   59 1   
    58   55   56 2   
    59   55   60 1   
    60   60   61 1   
    61   60   68 1   
    62   61   62 1   
    63   61   64 1   
    64   61   69 1   
    65   62   63 2   
    66   62   72 1   
    67   64   65 1   
    68   64   70 1   
    69   64   71 1   
    70   65   66 1   
    71   65   67 1   
    72   72   73 1   
    73   72   76 1   
    74   73   74 1   
    75   73   77 1   
    76   73   78 1   
    77   74   75 2   
    78   74   79 1   
    79   79   80 1   
    80   79   86 1   
    81   80   81 1   
    82   80   83 1   
    83   80   87 1   
    84   81   82 2   
    85   81   93 1   
    86   83   84 1   
    87   83   85 1   
    88   83   88 1   
    89   84   90 1   
    90   84   91 1   
    91   84   92 1   
    92   85   89 1   
    93   93   94 1   
    94   93  101 1   
    95   94   95 1   
    96   94   97 1   
    97   94  102 1   
    98   95   96 2   
    99   95  112 1   
   100   97   98 1   
   101   97   99 1   
   102   97  103 1   
   103   98  100 1   
   104   98  104 1   
   105   98  105 1   
   106   99  106 1   
   107   99  107 1   
   108   99  108 1   
   109  100  109 1   
   110  100  110 1   
   111  100  111 1   
   112  112  113 1   
   113  112  119 1   
   114  113  114 1   
   115  113  116 1   
   116  113  120 1   
   117  114  115 2   
   118  114  126 1   
   119  116  117 1   
   120  116  118 1   
   121  116  121 1   
   122  117  123 1   
   123  117  124 1   
   124  117  125 1   
   125  118  122 1   
   126  126  127 1   
   127  126  133 1   
   128  127  128 1   
   129  127  130 1   
   130  127  134 1   
   131  128  129 2   
   132  128  140 1   
   133  130  131 1   
   134  130  132 1   
   135  130  135 1   
   136  131  137 1   
   137  131  138 1   
   138  131  139 1   
   139  132  136 1   
   140  140  141 1   
   141  140  149 1   
   142  141  142 1   
   143  141  144 1   
   144  141  150 1   
   145  142  143 2   
   146  142  162 1   
   147  144  145 1   
   148  144  151 1   
   149  144  152 1   
   150  145  146 1   
   151  145  153 1   
   152  145  154 1   
   153  146  147 1   
   154  146  155 1   
   155  146  156 1   
   156  147  148 1   
   157  147  157 1   
   158  147  158 1   
   159  148  159 1   
   160  148  160 1   
   161  148  161 1   
   162  162  163 1   
   163  162  171 1   
   164  163  164 1   
   165  163  166 1   
   166  163  172 1   
   167  164  165 2   
   168  164  177 1   
   169  166  167 1   
   170  166  173 1   
   171  166  174 1   
   172  167  168 1   
   173  167  175 1   
   174  167  176 1   
   175  168  169 1   
   176  168  170 1   
   177  177  178 1   
   178  177  182 1   
   179  178  179 1   
   180  178  180 1   
   181  178  181 1   
   182  184  185 1   
   183  184  186 1   
   184  187  188 1   
   185  187  189 1   
@<TRIPOS>SUBSTRUCTURE
     1 MOL         1 TEMP              0 ****  ****    0 ROOT
