@<TRIPOS>MOLECULE
MOL
  181   177     1     0     0
SMALL
resp


@<TRIPOS>ATOM
      1 C1          9.8960    7.1620   -1.6800 c3        1 MOL     -0.215004
      2 C2          8.5930    6.3320   -1.4660 c         1 MOL      0.631102
      3 O1          7.5430    6.8980   -1.2960 o         1 MOL     -0.587178
      4 H1         10.7520    6.4880   -1.7240 hc        1 MOL      0.044154
      5 H2          9.8250    7.7190   -2.6140 hc        1 MOL      0.044154
      6 H3         10.0240    7.8580   -0.8510 hc        1 MOL      0.044154
      7 N1          8.6740    5.0440   -1.4060 n         1 MOL     -0.576113
      8 C3          9.8620    4.2390   -1.7120 c3        1 MOL      0.255352
      9 C4         10.7020    3.6840   -0.5260 c         1 MOL      0.383703
     10 O2         11.8590    3.2110   -0.7630 o         1 MOL     -0.564135
     11 C5          9.2910    3.1590   -2.6700 c3        1 MOL     -0.358340
     12 C6          8.1200    2.3650   -2.1230 c         1 MOL      0.744296
     13 O3          7.4480    1.7260   -2.9970 o         1 MOL     -0.735210
     14 O4          7.8340    2.3600   -0.8970 o         1 MOL     -0.735210
     15 H4          7.7780    4.7010   -1.0910 hn        1 MOL      0.385506
     16 H5         10.6270    4.7460   -2.3080 h1        1 MOL      0.066980
     17 H6         10.1560    2.5590   -2.9300 hc        1 MOL      0.087423
     18 H7          9.0170    3.5670   -3.6450 hc        1 MOL      0.087423
     19 N2         10.2330    3.7710    0.6870 n         1 MOL     -0.259759
     20 C7         10.9020    3.2420    1.8810 c3        1 MOL      0.086488
     21 C8         10.2080    2.1000    2.6210 c         1 MOL      0.480874
     22 O5         10.7980    1.5270    3.5630 o         1 MOL     -0.553438
     23 C9         11.1310    4.4890    2.7340 c3        1 MOL     -0.294189
     24 H8          9.4430    4.3710    0.8610 hn        1 MOL      0.227988
     25 H9         11.8960    2.8780    1.6220 h1        1 MOL      0.098119
     26 H10        11.8650    5.1610    2.2950 hc        1 MOL      0.082289
     27 H11        10.2080    5.0250    2.9660 hc        1 MOL      0.082289
     28 H12        11.5150    4.2000    3.7160 hc        1 MOL      0.082289
     29 N3          9.1480    1.5070    2.0080 n         1 MOL     -0.218554
     30 C10         8.5700    0.2590    2.4400 c3        1 MOL     -0.189659
     31 C11         8.4410   -0.7150    1.2260 c         1 MOL      0.630964
     32 O6          8.5000   -0.3380    0.0660 o         1 MOL     -0.593861
     33 C12         7.3110    0.4030    3.2100 c3        1 MOL     -0.083440
     34 C13         6.2520    1.2430    2.4430 c         1 MOL      0.607179
     35 O7          5.7170    2.2050    3.0290 o         1 MOL     -0.640977
     36 O8          5.9570    0.8000    1.3040 o         1 MOL     -0.640977
     37 H13         8.7360    1.9040    1.1760 hn        1 MOL      0.211321
     38 H14         9.2920   -0.2080    3.1140 h1        1 MOL      0.088359
     39 H15         7.4360    0.9560    4.1420 hc        1 MOL      0.038269
     40 H16         6.8960   -0.5290    3.5810 hc        1 MOL      0.038269
     41 N4          8.1960   -1.9780    1.5200 n         1 MOL     -0.482743
     42 C14         8.1220   -3.0240    0.4940 c3        1 MOL     -0.071428
     43 C15         6.7250   -3.1430   -0.1630 c         1 MOL      0.770726
     44 O9          5.9700   -2.2000   -0.2030 o         1 MOL     -0.649355
     45 H17         7.9830   -2.1970    2.4900 hn        1 MOL      0.316904
     46 H18         8.3020   -3.9460    1.0360 h1        1 MOL      0.080408
     47 H19         8.8660   -2.9360   -0.2900 h1        1 MOL      0.080408
     48 N5          6.4090   -4.2650   -0.7350 n         1 MOL     -0.609634
     49 C16         5.1390   -4.5500   -1.4420 c3        1 MOL      0.279509
     50 C17         3.9460   -4.6150   -0.5110 c         1 MOL      0.667958
     51 O10         3.8990   -5.1850    0.5920 o         1 MOL     -0.553375
     52 C18         5.3120   -5.8700   -2.1680 c3        1 MOL     -0.565801
     53 C19         6.2930   -5.9640   -3.2780 c         1 MOL      0.835450
     54 N6          5.9010   -5.6080   -4.4580 n         1 MOL     -0.822052
     55 O11         7.4630   -6.1340   -3.1450 o         1 MOL     -0.585059
     56 H20         7.0160   -5.0430   -0.5420 hn        1 MOL      0.278467
     57 H21         4.9540   -3.6990   -2.1000 h1        1 MOL      0.021149
     58 H22         4.3480   -6.0260   -2.6310 hc        1 MOL      0.141204
     59 H23         5.4410   -6.6620   -1.4280 hc        1 MOL      0.141204
     60 H24         4.9930   -5.1800   -4.5530 hn        1 MOL      0.361585
     61 H25         6.4490   -5.7520   -5.2990 hn        1 MOL      0.361585
     62 N7          2.8730   -4.1250   -1.0560 n         1 MOL     -0.585033
     63 C20         1.5390   -4.0620   -0.3590 c3        1 MOL      0.121288
     64 C21         1.4060   -3.1920    0.8970 c         1 MOL      0.605466
     65 O12         2.2210   -2.2800    1.0800 o         1 MOL     -0.543232
     66 H26         2.9000   -3.8250   -2.0180 hn        1 MOL      0.287423
     67 H27         1.2220   -5.0870   -0.1680 h1        1 MOL      0.062206
     68 H28         0.7660   -3.7160   -1.0440 h1        1 MOL      0.062206
     69 N8          0.3190   -3.2040    1.7320 n         1 MOL     -0.589945
     70 C22        -0.8370   -4.1190    1.6560 c3        1 MOL      0.019755
     71 C23        -2.2310   -3.4650    1.6630 c         1 MOL      0.633381
     72 O13        -3.1010   -4.0540    0.9900 o         1 MOL     -0.572283
     73 C24        -0.8490   -5.2780    2.7550 c3        1 MOL      0.489615
     74 C25         0.1940   -6.4300    2.5370 c3        1 MOL     -0.450645
     75 O14        -0.5920   -4.8540    4.0300 oh        1 MOL     -0.631591
     76 H29         0.3940   -2.6330    2.5610 hn        1 MOL      0.372736
     77 H30        -0.9080   -4.6070    0.6820 h1        1 MOL      0.025920
     78 H31        -1.7900   -5.8140    2.6550 h1        1 MOL     -0.044255
     79 H32        -1.1150   -5.4050    4.6190 ho        1 MOL      0.398280
     80 H33        -0.0680   -6.9410    1.6090 hc        1 MOL      0.101147
     81 H34         1.1930   -6.0470    2.3480 hc        1 MOL      0.101147
     82 H35         0.1260   -7.1180    3.3840 hc        1 MOL      0.101147
     83 N9         -2.4910   -2.3430    2.3360 n         1 MOL     -0.576339
     84 C26        -3.7980   -1.6760    2.3900 c3        1 MOL      0.208435
     85 C27        -3.8650   -0.4470    1.5560 c         1 MOL      0.520994
     86 O15        -3.0230    0.4070    1.7000 o         1 MOL     -0.563452
     87 C28        -4.3700   -1.4770    3.8060 c3        1 MOL      0.140271
     88 C29        -4.2740   -2.7230    4.6750 c3        1 MOL     -0.050205
     89 C30        -5.8160   -0.9980    3.9870 c3        1 MOL     -0.183450
     90 C31        -5.0580   -3.9710    4.2850 c3        1 MOL     -0.233258
     91 H36        -1.6960   -1.9700    2.8250 hn        1 MOL      0.295226
     92 H37        -4.4840   -2.3710    1.8980 h1        1 MOL      0.078728
     93 H38        -3.6710   -0.7960    4.3030 hc        1 MOL      0.008280
     94 H39        -4.6390   -2.4160    5.6580 hc        1 MOL     -0.000949
     95 H40        -3.2010   -2.9280    4.7640 hc        1 MOL     -0.000949
     96 H41        -6.5370   -1.6660    3.5480 hc        1 MOL      0.049740
     97 H42        -5.9820   -0.9270    5.0580 hc        1 MOL      0.049740
     98 H43        -5.9130   -0.0110    3.5320 hc        1 MOL      0.049740
     99 H44        -4.7290   -4.2350    3.2800 hc        1 MOL      0.049306
    100 H45        -4.8990   -4.7920    4.9790 hc        1 MOL      0.049306
    101 H46        -6.1300   -3.7490    4.3360 hc        1 MOL      0.049306
    102 N10        -4.8160   -0.2090    0.6270 n         1 MOL     -0.482709
    103 C32        -6.0960   -0.9800    0.3160 c3        1 MOL      0.281521
    104 C33        -7.2510   -0.1520   -0.2190 c         1 MOL      0.466832
    105 O16        -7.0240    1.0020   -0.6180 o         1 MOL     -0.498315
    106 C34        -5.7860   -2.0690   -0.6550 c3        1 MOL     -0.450029
    107 C35        -5.1470   -1.7400   -2.0350 c         1 MOL      0.991438
    108 O17        -4.8180   -2.7200   -2.7310 o         1 MOL     -0.782108
    109 O18        -4.7220   -0.6000   -2.3570 o         1 MOL     -0.782108
    110 H47        -4.6710    0.6180    0.0680 hn        1 MOL      0.327848
    111 H48        -6.6730   -1.3580    1.1540 h1        1 MOL     -0.015924
    112 H49        -6.7080   -2.6150   -0.8380 hc        1 MOL      0.044053
    113 H50        -5.2320   -2.8710   -0.1750 hc        1 MOL      0.044053
    114 N11        -8.4570   -0.7290   -0.2800 n         1 MOL     -0.482169
    115 C36        -9.6790   -0.0880   -0.7200 c3        1 MOL      0.667909
    116 C37       -10.5500    0.5340    0.4370 c         1 MOL      0.162306
    117 O19       -10.6930   -0.1340    1.4300 o         1 MOL     -0.502912
    118 C38       -10.5190   -0.9640   -1.6600 c3        1 MOL     -0.294661
    119 C39        -9.7770   -1.7340   -2.7690 ca        1 MOL      0.223991
    120 C40        -8.9020   -1.0340   -3.6080 ca        1 MOL     -0.309249
    121 C41       -10.0280   -3.1220   -2.9620 ca        1 MOL     -0.309249
    122 C42        -8.1130   -1.7350   -4.5120 ca        1 MOL      0.002419
    123 C43        -9.2610   -3.7750   -3.9160 ca        1 MOL      0.002419
    124 C44        -8.2790   -3.1020   -4.7160 ca        1 MOL     -0.260836
    125 H51        -8.5490   -1.6100    0.2190 hn        1 MOL      0.240191
    126 H52        -9.3650    0.7240   -1.3760 h1        1 MOL      0.006740
    127 H53       -11.3700   -0.4100   -2.0470 hc        1 MOL      0.035989
    128 H54       -10.9180   -1.6810   -0.9420 hc        1 MOL      0.035989
    129 H55        -8.7490    0.0400   -3.5700 ha        1 MOL      0.139996
    130 H56       -10.7250   -3.5800   -2.2790 ha        1 MOL      0.139996
    131 H57        -7.3900   -1.1890   -5.0890 ha        1 MOL      0.090991
    132 H58        -9.3750   -4.8500   -3.9340 ha        1 MOL      0.090991
    133 H59        -7.5900   -3.6270   -5.3600 ha        1 MOL      0.152449
    134 N12       -11.1120    1.7300    0.2280 n         1 MOL     -0.010404
    135 C45       -10.8740    2.6120   -0.8990 c3        1 MOL      0.236176
    136 C46        -9.5670    3.2370   -1.0170 c         1 MOL      0.250483
    137 O20        -9.1030    3.3970   -2.1500 o         1 MOL     -0.537906
    138 C47       -12.0130    3.6670   -0.7450 c3        1 MOL     -0.000502
    139 C48       -13.1080    3.0120    0.0900 c3        1 MOL     -0.013426
    140 C49       -12.2410    2.1620    1.0300 c3        1 MOL     -0.254397
    141 H60       -11.1540    2.0760   -1.8060 h1        1 MOL     -0.023200
    142 H61       -11.6590    4.5000   -0.1290 hc        1 MOL      0.005158
    143 H62       -12.3580    3.9600   -1.7400 hc        1 MOL      0.005158
    144 H63       -13.6730    3.7860    0.6210 hc        1 MOL      0.023493
    145 H64       -13.7740    2.3790   -0.4850 hc        1 MOL      0.023493
    146 H65       -11.9290    2.7550    1.8930 h1        1 MOL      0.110881
    147 H66       -12.8860    1.3220    1.3080 h1        1 MOL      0.110881
    148 N13        -8.8780    3.6220    0.0200 n         1 MOL     -0.356050
    149 C50        -7.5140    4.2050    0.0390 c3        1 MOL      0.189570
    150 C51        -7.4350    5.5770   -0.6870 c         1 MOL      0.497100
    151 O21        -7.7340    6.6130   -0.0810 o         1 MOL     -0.599042
    152 C52        -6.8530    4.2360    1.3710 c3        1 MOL      0.044489
    153 C53        -6.4830    2.8550    1.9510 c3        1 MOL     -0.059037
    154 C54        -5.8830    3.0670    3.3590 c         1 MOL      0.710945
    155 O22        -6.5100    2.5320    4.3390 o         1 MOL     -0.717384
    156 O23        -4.8910    3.8130    3.5170 o         1 MOL     -0.717384
    157 H67        -9.3930    3.5070    0.8840 hn        1 MOL      0.272116
    158 H68        -6.9830    3.5150   -0.6110 h1        1 MOL      0.078321
    159 H69        -7.5830    4.7140    2.0320 hc        1 MOL     -0.012826
    160 H70        -5.9230    4.8010    1.2430 hc        1 MOL     -0.012826
    161 H71        -5.7200    2.3900    1.3190 hc        1 MOL     -0.048101
    162 H72        -7.3340    2.1690    1.9990 hc        1 MOL     -0.048101
    163 N14        -7.0190    5.7030   -1.9630 n         1 MOL     -0.370264
    164 C55        -6.2960    4.7510   -2.8370 c3        1 MOL     -0.110456
    165 H73        -6.1350    3.8160   -2.3020 h1        1 MOL      0.081520
    166 H74        -6.8870    4.5590   -3.7320 h1        1 MOL      0.081520
    167 H75        -5.3330    5.1770   -3.1220 h1        1 MOL      0.081520
    168 H76        -7.3250    6.5740   -2.3850 hn        1 MOL      0.256522
    169 Ca1         6.1960    0.2890   -1.2610 Ca        1 MOL      1.736941
    170 O24         3.7780   -0.3750   -0.6200 oh        1 MOL     -0.847655
    171 H77         3.5600   -0.8180    0.1990 ho        1 MOL      0.415322
    172 H78         3.0210   -0.5090   -1.1770 ho        1 MOL      0.415322
    173 O25         4.6340    2.3750   -1.5300 oh        1 MOL     -0.847655
    174 H79         4.3590    2.9240   -0.7930 ho        1 MOL      0.415322
    175 H80         3.8320    2.1940   -2.0150 ho        1 MOL      0.415322
    176 O26         7.8730   -1.3900   -2.6980 oh        1 MOL     -0.847655
    177 H81         8.2830   -2.2160   -2.4310 ho        1 MOL      0.415322
    178 H82         8.5490   -0.9350   -3.2000 ho        1 MOL      0.415322
    179 O27         5.0700   -0.4470   -3.4840 oh        1 MOL     -0.847655
    180 H83         4.7820    0.2610   -4.0690 ho        1 MOL      0.415322
    181 H84         5.4780   -1.0880   -4.0640 ho        1 MOL      0.415322
@<TRIPOS>BOND
     1    1    2 1   
     2    1    4 1   
     3    1    5 1   
     4    1    6 1   
     5    2    3 2   
     6    2    7 1   
     7    7    8 1   
     8    7   15 1   
     9    8    9 1   
    10    8   11 1   
    11    8   16 1   
    12    9   10 2   
    13    9   19 1   
    14   11   12 1   
    15   11   17 1   
    16   11   18 1   
    17   12   13 1   
    18   12   14 1   
    19   19   20 1   
    20   19   24 1   
    21   20   21 1   
    22   20   23 1   
    23   20   25 1   
    24   21   22 2   
    25   21   29 1   
    26   23   26 1   
    27   23   27 1   
    28   23   28 1   
    29   29   30 1   
    30   29   37 1   
    31   30   31 1   
    32   30   33 1   
    33   30   38 1   
    34   31   32 2   
    35   31   41 1   
    36   33   34 1   
    37   33   39 1   
    38   33   40 1   
    39   34   35 1   
    40   34   36 1   
    41   41   42 1   
    42   41   45 1   
    43   42   43 1   
    44   42   46 1   
    45   42   47 1   
    46   43   44 2   
    47   43   48 1   
    48   48   49 1   
    49   48   56 1   
    50   49   50 1   
    51   49   52 1   
    52   49   57 1   
    53   50   51 2   
    54   50   62 1   
    55   52   53 1   
    56   52   58 1   
    57   52   59 1   
    58   53   54 1   
    59   53   55 2   
    60   54   60 1   
    61   54   61 1   
    62   62   63 1   
    63   62   66 1   
    64   63   64 1   
    65   63   67 1   
    66   63   68 1   
    67   64   65 2   
    68   64   69 1   
    69   69   70 1   
    70   69   76 1   
    71   70   71 1   
    72   70   73 1   
    73   70   77 1   
    74   71   72 2   
    75   71   83 1   
    76   73   74 1   
    77   73   75 1   
    78   73   78 1   
    79   74   80 1   
    80   74   81 1   
    81   74   82 1   
    82   75   79 1   
    83   83   84 1   
    84   83   91 1   
    85   84   85 1   
    86   84   87 1   
    87   84   92 1   
    88   85   86 2   
    89   85  102 1   
    90   87   88 1   
    91   87   89 1   
    92   87   93 1   
    93   88   90 1   
    94   88   94 1   
    95   88   95 1   
    96   89   96 1   
    97   89   97 1   
    98   89   98 1   
    99   90   99 1   
   100   90  100 1   
   101   90  101 1   
   102  102  103 1   
   103  102  110 1   
   104  103  104 1   
   105  103  106 1   
   106  103  111 1   
   107  104  105 2   
   108  104  114 1   
   109  106  107 1   
   110  106  112 1   
   111  106  113 1   
   112  107  108 1   
   113  107  109 1   
   114  114  115 1   
   115  114  125 1   
   116  115  116 1   
   117  115  118 1   
   118  115  126 1   
   119  116  117 2   
   120  116  134 1   
   121  118  119 1   
   122  118  127 1   
   123  118  128 1   
   124  119  120 ar  
   125  119  121 ar  
   126  120  122 ar  
   127  120  129 1   
   128  121  123 ar  
   129  121  130 1   
   130  122  124 ar  
   131  122  131 1   
   132  123  124 ar  
   133  123  132 1   
   134  124  133 1   
   135  134  135 1   
   136  134  140 1   
   137  135  136 1   
   138  135  138 1   
   139  135  141 1   
   140  136  137 2   
   141  136  148 1   
   142  138  139 1   
   143  138  142 1   
   144  138  143 1   
   145  139  140 1   
   146  139  144 1   
   147  139  145 1   
   148  140  146 1   
   149  140  147 1   
   150  148  149 1   
   151  148  157 1   
   152  149  150 1   
   153  149  152 1   
   154  149  158 1   
   155  150  151 2   
   156  150  163 1   
   157  152  153 1   
   158  152  159 1   
   159  152  160 1   
   160  153  154 1   
   161  153  161 1   
   162  153  162 1   
   163  154  155 1   
   164  154  156 1   
   165  163  164 1   
   166  163  168 1   
   167  164  165 1   
   168  164  166 1   
   169  164  167 1   
   170  170  171 1   
   171  170  172 1   
   172  173  174 1   
   173  173  175 1   
   174  176  177 1   
   175  176  178 1   
   176  179  180 1   
   177  179  181 1   
@<TRIPOS>SUBSTRUCTURE
     1 MOL         1 TEMP              0 ****  ****    0 ROOT
