@<TRIPOS>MOLECULE
MOL
  189   185     1     0     0
SMALL
resp


@<TRIPOS>ATOM
      1 C1          9.4270    0.2330    2.0820 c3        1 MOL     -0.540851
      2 C2          8.1890    0.1540    1.1390 c         1 MOL      0.773472
      3 O1          7.0840   -0.1640    1.6280 o         1 MOL     -0.662150
      4 H1          9.4810    1.2260    2.5290 hc        1 MOL      0.136839
      5 H2          9.3330   -0.5150    2.8690 hc        1 MOL      0.136839
      6 H3         10.3350    0.0440    1.5070 hc        1 MOL      0.136839
      7 N1          8.4190    0.3450   -0.1660 n         1 MOL     -0.653713
      8 C3          7.4180    0.4120   -1.2390 c3        1 MOL     -0.011957
      9 C4          6.8420   -0.9720   -1.6790 c         1 MOL      0.396245
     10 O2          6.5450   -1.1350   -2.8260 o         1 MOL     -0.399351
     11 C5          7.9630    1.2420   -2.3480 c3        1 MOL     -0.418217
     12 C6          9.2190    0.6570   -3.0700 c         1 MOL      0.770717
     13 O3          9.7290   -0.4630   -2.8040 o         1 MOL     -0.621617
     14 O4          9.8800    1.3610   -3.8380 o         1 MOL     -0.621617
     15 H4          9.3440    0.6480   -0.4060 hn        1 MOL      0.370540
     16 H5          6.5470    0.9660   -0.8750 h1        1 MOL      0.186988
     17 H6          8.1840    2.2310   -1.9330 hc        1 MOL      0.131417
     18 H7          7.2170    1.4470   -3.1180 hc        1 MOL      0.131417
     19 N2          6.6440   -1.8030   -0.6910 n         1 MOL     -0.264987
     20 C7          6.2140   -3.2180   -0.9210 c3        1 MOL     -0.014597
     21 C8          4.7480   -3.4150   -1.4330 c         1 MOL      0.483150
     22 O5          4.3920   -4.0430   -2.4380 o         1 MOL     -0.528796
     23 C9          6.5270   -4.1010    0.3690 c3        1 MOL     -0.068567
     24 C10         7.9480   -4.0790    0.9000 c3        1 MOL      0.109647
     25 C11         8.0570   -4.8450    2.2410 c3        1 MOL     -0.167830
     26 C12         9.5120   -4.7950    2.7700 c3        1 MOL      0.189955
     27 N3          9.7580   -5.6450    3.9840 n4        1 MOL     -0.312197
     28 H8          6.8600   -1.5360    0.2610 hn        1 MOL      0.301355
     29 H9          6.7740   -3.6200   -1.7750 h1        1 MOL      0.095909
     30 H10         6.2060   -5.1150    0.1250 hc        1 MOL      0.029802
     31 H11         5.9130   -3.7540    1.1970 hc        1 MOL      0.029802
     32 H12         8.1430   -3.0330    1.1260 hc        1 MOL     -0.002814
     33 H13         8.6690   -4.4410    0.1670 hc        1 MOL     -0.002814
     34 H14         7.8040   -5.8800    1.9820 hc        1 MOL      0.051079
     35 H15         7.4020   -4.4750    3.0160 hc        1 MOL      0.051079
     36 H16         9.7700   -3.7550    2.9890 hx        1 MOL      0.035301
     37 H17        10.1890   -5.0680    1.9650 hx        1 MOL      0.035301
     38 H18         9.1250   -5.3350    4.7060 hn        1 MOL      0.265558
     39 H19         9.4320   -6.5690    3.7400 hn        1 MOL      0.265558
     40 H20        10.7390   -5.7370    4.2040 hn        1 MOL      0.265558
     41 N4          3.7410   -2.8470   -0.7730 n         1 MOL     -0.461093
     42 C13         3.7070   -1.9330    0.3790 c3        1 MOL      0.029664
     43 C14         3.7760   -0.4370   -0.0450 c         1 MOL      0.231179
     44 O6          3.8510   -0.2520   -1.2230 o         1 MOL     -0.340361
     45 C15         2.4550   -2.2490    1.2160 c3        1 MOL     -0.236439
     46 C16         1.1470   -2.2550    0.4540 c         1 MOL      0.663802
     47 O7          0.8330   -1.3720   -0.4130 o         1 MOL     -0.682271
     48 O8          0.2560   -3.0490    0.8740 o         1 MOL     -0.682271
     49 H21         2.8910   -2.9870   -1.2940 hn        1 MOL      0.389807
     50 H22         4.5360   -2.1410    1.0510 h1        1 MOL      0.096007
     51 H23         2.3680   -1.4120    1.9220 hc        1 MOL      0.072275
     52 H24         2.5970   -3.1490    1.8180 hc        1 MOL      0.072275
     53 N5          3.9120    0.4800    0.9090 n         1 MOL     -0.280828
     54 C17         3.9830    1.8820    0.6470 c3        1 MOL     -0.032247
     55 C18         2.7380    2.5730   -0.0020 c         1 MOL      0.470664
     56 O9          1.6960    1.9110   -0.1260 o         1 MOL     -0.569467
     57 H25         3.9830    0.1870    1.8720 hn        1 MOL      0.288143
     58 H26         4.7860    2.0680   -0.0660 h1        1 MOL      0.057952
     59 H27         4.3140    2.4730    1.5050 h1        1 MOL      0.057952
     60 N6          2.7710    3.8310   -0.4300 n         1 MOL     -0.411499
     61 C19         1.6650    4.6390   -0.9480 c3        1 MOL      0.335529
     62 C20         1.9410    6.1410   -0.6420 c         1 MOL      0.432913
     63 O10         3.1240    6.4820   -0.4660 o         1 MOL     -0.559208
     64 C21         1.6290    4.5090   -2.4550 c3        1 MOL     -0.398783
     65 C22         1.0680    3.1070   -2.9020 c         1 MOL      0.695389
     66 O11         1.7640    2.3960   -3.7260 o         1 MOL     -0.647384
     67 O12        -0.0610    2.7690   -2.5020 o         1 MOL     -0.647384
     68 H28         3.6910    4.2320   -0.4800 hn        1 MOL      0.271024
     69 H29         0.7670    4.3560   -0.4070 h1        1 MOL     -0.000801
     70 H30         2.6510    4.6550   -2.8350 hc        1 MOL      0.102984
     71 H31         1.0030    5.3160   -2.8380 hc        1 MOL      0.102984
     72 N7          1.0680    7.1600   -0.4630 n         1 MOL     -0.390106
     73 C23        -0.3920    7.0420   -0.6110 c3        1 MOL     -0.115106
     74 C24        -1.0810    6.1500    0.4600 c         1 MOL      0.673605
     75 O13        -0.6190    6.2430    1.6200 o         1 MOL     -0.555927
     76 H32         1.4440    8.1030   -0.4610 hn        1 MOL      0.325042
     77 H33        -0.6050    6.6700   -1.6110 h1        1 MOL      0.072006
     78 H34        -0.8110    8.0280   -0.4060 h1        1 MOL      0.072006
     79 N8         -2.1330    5.4300    0.1510 n         1 MOL     -0.656061
     80 C25        -2.7780    4.5000    1.1480 c3        1 MOL      0.068471
     81 C26        -1.8680    3.2260    1.3120 c         1 MOL      0.725574
     82 O14        -1.4570    2.6360    0.3350 o         1 MOL     -0.498377
     83 C27        -4.2550    4.2370    0.6930 c3        1 MOL      0.255685
     84 C28        -5.1570    3.5990    1.7090 c3        1 MOL     -0.227187
     85 O15        -4.2810    3.5710   -0.5490 oh        1 MOL     -0.601831
     86 H35        -2.5470    5.4180   -0.7660 hn        1 MOL      0.353166
     87 H36        -2.8230    5.1390    2.0290 h1        1 MOL      0.072085
     88 H37        -4.6880    5.2320    0.7060 h1        1 MOL      0.027658
     89 H38        -5.1970    3.3600   -0.7620 ho        1 MOL      0.419197
     90 H39        -6.1630    3.6470    1.2820 hc        1 MOL      0.055707
     91 H40        -4.9240    2.5630    1.9160 hc        1 MOL      0.055707
     92 H41        -5.2130    4.1710    2.6380 hc        1 MOL      0.055707
     93 N9         -1.5960    2.8780    2.5990 n         1 MOL     -0.628815
     94 C29        -0.9040    1.7350    3.2050 c3        1 MOL      0.209976
     95 C30        -1.2010    0.4420    2.5010 c         1 MOL      0.103844
     96 O16        -0.6740    0.1750    1.4190 o         1 MOL     -0.213788
     97 C31         0.5780    2.0280    3.3340 c3        1 MOL      0.067823
     98 C32         0.9930    3.4400    3.8960 c3        1 MOL      0.312395
     99 C33         1.3800    0.9180    3.9790 c3        1 MOL     -0.526343
    100 C34         2.4520    3.8340    3.6300 c3        1 MOL     -0.344446
    101 H42        -2.0460    3.4970    3.2590 hn        1 MOL      0.259223
    102 H43        -1.2380    1.5280    4.2270 h1        1 MOL      0.022338
    103 H44         0.8970    2.0210    2.2960 hc        1 MOL      0.057597
    104 H45         0.7610    3.4010    4.9620 hc        1 MOL     -0.075003
    105 H46         0.3540    4.2420    3.5130 hc        1 MOL     -0.075003
    106 H47         1.4490    0.8460    5.0670 hc        1 MOL      0.127982
    107 H48         0.9800   -0.0870    3.8130 hc        1 MOL      0.127982
    108 H49         2.4260    0.9850    3.6890 hc        1 MOL      0.127982
    109 H50         2.5140    4.1940    2.6030 hc        1 MOL      0.081699
    110 H51         2.6010    4.7600    4.1910 hc        1 MOL      0.081699
    111 H52         3.2450    3.1360    3.8750 hc        1 MOL      0.081699
    112 N10        -2.0090   -0.4360    3.0840 n         1 MOL     -0.155284
    113 C35        -2.4030   -1.7300    2.4880 c3        1 MOL     -0.312442
    114 C36        -3.8780   -1.8940    2.1430 c         1 MOL      0.652727
    115 O17        -4.2610   -2.8470    1.4870 o         1 MOL     -0.575610
    116 C37        -1.9690   -2.9180    3.3540 c3        1 MOL      0.412734
    117 C38        -2.3730   -2.6390    4.7400 c3        1 MOL     -0.313313
    118 O18        -0.5440   -3.0470    3.4090 oh        1 MOL     -0.617818
    119 H53        -2.3700   -0.1920    4.0020 hn        1 MOL      0.221475
    120 H54        -1.7690   -1.9130    1.6210 h1        1 MOL      0.233929
    121 H55        -2.4130   -3.8390    2.9550 h1        1 MOL      0.001848
    122 H56        -0.2540   -2.8960    2.5030 ho        1 MOL      0.361185
    123 H57        -2.2760   -3.5420    5.3410 hc        1 MOL      0.068211
    124 H58        -1.6400   -1.9340    5.1320 hc        1 MOL      0.068211
    125 H59        -3.4130   -2.3240    4.8350 hc        1 MOL      0.068211
    126 N11        -4.7840   -1.0870    2.6780 n         1 MOL     -0.317457
    127 C39        -6.2410   -1.0820    2.3540 c3        1 MOL     -0.209831
    128 C40        -6.4930   -1.1830    0.8370 c         1 MOL      0.539110
    129 O19        -6.2050   -0.1790    0.2050 o         1 MOL     -0.495667
    130 C41        -6.9460    0.1090    3.0010 c3        1 MOL      0.607497
    131 C42        -8.4200    0.3670    2.6060 c3        1 MOL     -0.552391
    132 O20        -6.9050   -0.0520    4.3700 oh        1 MOL     -0.637072
    133 H60        -4.4780   -0.3270    3.2630 hn        1 MOL      0.186594
    134 H61        -6.6130   -1.9740    2.8600 h1        1 MOL      0.095767
    135 H62        -6.4190    1.0220    2.7180 h1        1 MOL     -0.060282
    136 H63        -6.7490    0.8270    4.7260 ho        1 MOL      0.382027
    137 H64        -8.9940   -0.5080    2.3090 hc        1 MOL      0.133729
    138 H65        -8.8370    0.8510    3.4850 hc        1 MOL      0.133729
    139 H66        -8.3650    1.1050    1.8070 hc        1 MOL      0.133729
    140 N12        -7.0270   -2.3270    0.3410 n         1 MOL     -0.313183
    141 C43        -7.1880   -2.7350   -1.0960 c3        1 MOL      0.053089
    142 C44        -6.0110   -2.4060   -2.0180 c         1 MOL      0.467784
    143 O21        -6.1800   -1.8070   -3.1000 o         1 MOL     -0.508060
    144 C45        -8.4960   -2.1100   -1.5890 c3        1 MOL     -0.167620
    145 C46        -9.7160   -2.5420   -0.6770 c3        1 MOL      0.014771
    146 C47       -10.9990   -1.7010   -0.9930 c3        1 MOL      0.023319
    147 C48       -11.7350   -2.2410   -2.2400 c3        1 MOL      0.024204
    148 N13       -13.1910   -1.8640   -2.3550 n4        1 MOL     -0.233345
    149 H67        -7.3070   -2.9980    1.0460 hn        1 MOL      0.224032
    150 H68        -7.2740   -3.8200   -1.1240 h1        1 MOL      0.066177
    151 H69        -8.7030   -2.4210   -2.6060 hc        1 MOL      0.086425
    152 H70        -8.4180   -1.0270   -1.6120 hc        1 MOL      0.086425
    153 H71        -9.4840   -2.3700    0.3770 hc        1 MOL      0.002863
    154 H72        -9.8940   -3.6090   -0.8200 hc        1 MOL      0.002863
    155 H73       -10.6320   -0.6770   -0.9910 hc        1 MOL      0.010014
    156 H74       -11.6370   -1.8560   -0.1170 hc        1 MOL      0.010014
    157 H75       -11.5860   -3.2960   -2.0320 hx        1 MOL      0.065113
    158 H76       -11.1110   -1.9910   -3.0970 hx        1 MOL      0.065113
    159 H77       -13.6970   -1.9670   -1.4820 hn        1 MOL      0.221186
    160 H78       -13.3100   -0.9960   -2.8630 hn        1 MOL      0.221186
    161 H79       -13.5610   -2.5570   -2.9900 hn        1 MOL      0.221186
    162 N14        -4.7940   -2.8020   -1.6150 n         1 MOL     -0.502129
    163 C49        -3.6040   -2.2450   -2.2900 c3        1 MOL      0.253902
    164 C50        -2.4610   -2.2660   -1.2380 c         1 MOL      0.262970
    165 O22        -2.1580   -1.1950   -0.7300 o         1 MOL     -0.545564
    166 C51        -3.2860   -2.9440   -3.6500 c3        1 MOL     -0.311128
    167 C52        -2.0210   -2.4400   -4.3180 c3        1 MOL     -0.046565
    168 C53        -1.7260   -0.9610   -4.3610 c         1 MOL      0.697280
    169 O23        -2.4120   -0.2710   -5.1760 o         1 MOL     -0.645681
    170 O24        -0.9590   -0.5130   -3.4540 o         1 MOL     -0.645681
    171 H80        -4.7530   -3.2760   -0.7230 hn        1 MOL      0.296672
    172 H81        -3.8970   -1.2100   -2.4500 h1        1 MOL      0.122485
    173 H82        -4.0710   -2.7720   -4.3880 hc        1 MOL      0.097555
    174 H83        -3.2920   -4.0330   -3.5940 hc        1 MOL      0.097555
    175 H84        -1.8660   -2.8220   -5.3260 hc        1 MOL      0.018812
    176 H85        -1.2220   -3.0070   -3.8460 hc        1 MOL      0.018812
    177 N15        -1.8930   -3.4070   -0.7170 n         1 MOL     -0.167235
    178 C54        -2.3630   -4.7440   -0.9970 c3        1 MOL     -0.096252
    179 H86        -3.1960   -4.9820   -0.3370 h1        1 MOL      0.042668
    180 H87        -2.6940   -4.8040   -2.0340 h1        1 MOL      0.042668
    181 H88        -1.5540   -5.4560   -0.8320 h1        1 MOL      0.042668
    182 H89        -1.2150   -3.3210    0.0280 hn        1 MOL      0.296973
    183 Ca1        -0.4320    0.6030   -1.2430 Ca        1 MOL      1.547558
    184 O25        -2.7910    1.7330   -1.9750 oh        1 MOL     -0.844125
    185 H90        -3.1300    1.8240   -2.8610 ho        1 MOL      0.404538
    186 H91        -3.2750    2.3740   -1.4590 ho        1 MOL      0.404538
    187 O26         1.8720    0.0600   -2.8160 oh        1 MOL     -0.844125
    188 H92         1.9680    0.9460   -3.1880 ho        1 MOL      0.404538
    189 H93         2.5590    0.0030   -2.1450 ho        1 MOL      0.404538
@<TRIPOS>BOND
     1    1    2 1   
     2    1    4 1   
     3    1    5 1   
     4    1    6 1   
     5    2    3 2   
     6    2    7 1   
     7    7    8 1   
     8    7   15 1   
     9    8    9 1   
    10    8   11 1   
    11    8   16 1   
    12    9   10 2   
    13    9   19 1   
    14   11   12 1   
    15   11   17 1   
    16   11   18 1   
    17   12   13 1   
    18   12   14 1   
    19   19   20 1   
    20   19   28 1   
    21   20   21 1   
    22   20   23 1   
    23   20   29 1   
    24   21   22 2   
    25   21   41 1   
    26   23   24 1   
    27   23   30 1   
    28   23   31 1   
    29   24   25 1   
    30   24   32 1   
    31   24   33 1   
    32   25   26 1   
    33   25   34 1   
    34   25   35 1   
    35   26   27 1   
    36   26   36 1   
    37   26   37 1   
    38   27   38 1   
    39   27   39 1   
    40   27   40 1   
    41   41   42 1   
    42   41   49 1   
    43   42   43 1   
    44   42   45 1   
    45   42   50 1   
    46   43   44 2   
    47   43   53 1   
    48   45   46 1   
    49   45   51 1   
    50   45   52 1   
    51   46   47 1   
    52   46   48 1   
    53   53   54 1   
    54   53   57 1   
    55   54   55 1   
    56   54   58 1   
    57   54   59 1   
    58   55   56 2   
    59   55   60 1   
    60   60   61 1   
    61   60   68 1   
    62   61   62 1   
    63   61   64 1   
    64   61   69 1   
    65   62   63 2   
    66   62   72 1   
    67   64   65 1   
    68   64   70 1   
    69   64   71 1   
    70   65   66 1   
    71   65   67 1   
    72   72   73 1   
    73   72   76 1   
    74   73   74 1   
    75   73   77 1   
    76   73   78 1   
    77   74   75 2   
    78   74   79 1   
    79   79   80 1   
    80   79   86 1   
    81   80   81 1   
    82   80   83 1   
    83   80   87 1   
    84   81   82 2   
    85   81   93 1   
    86   83   84 1   
    87   83   85 1   
    88   83   88 1   
    89   84   90 1   
    90   84   91 1   
    91   84   92 1   
    92   85   89 1   
    93   93   94 1   
    94   93  101 1   
    95   94   95 1   
    96   94   97 1   
    97   94  102 1   
    98   95   96 2   
    99   95  112 1   
   100   97   98 1   
   101   97   99 1   
   102   97  103 1   
   103   98  100 1   
   104   98  104 1   
   105   98  105 1   
   106   99  106 1   
   107   99  107 1   
   108   99  108 1   
   109  100  109 1   
   110  100  110 1   
   111  100  111 1   
   112  112  113 1   
   113  112  119 1   
   114  113  114 1   
   115  113  116 1   
   116  113  120 1   
   117  114  115 2   
   118  114  126 1   
   119  116  117 1   
   120  116  118 1   
   121  116  121 1   
   122  117  123 1   
   123  117  124 1   
   124  117  125 1   
   125  118  122 1   
   126  126  127 1   
   127  126  133 1   
   128  127  128 1   
   129  127  130 1   
   130  127  134 1   
   131  128  129 2   
   132  128  140 1   
   133  130  131 1   
   134  130  132 1   
   135  130  135 1   
   136  131  137 1   
   137  131  138 1   
   138  131  139 1   
   139  132  136 1   
   140  140  141 1   
   141  140  149 1   
   142  141  142 1   
   143  141  144 1   
   144  141  150 1   
   145  142  143 2   
   146  142  162 1   
   147  144  145 1   
   148  144  151 1   
   149  144  152 1   
   150  145  146 1   
   151  145  153 1   
   152  145  154 1   
   153  146  147 1   
   154  146  155 1   
   155  146  156 1   
   156  147  148 1   
   157  147  157 1   
   158  147  158 1   
   159  148  159 1   
   160  148  160 1   
   161  148  161 1   
   162  162  163 1   
   163  162  171 1   
   164  163  164 1   
   165  163  166 1   
   166  163  172 1   
   167  164  165 2   
   168  164  177 1   
   169  166  167 1   
   170  166  173 1   
   171  166  174 1   
   172  167  168 1   
   173  167  175 1   
   174  167  176 1   
   175  168  169 1   
   176  168  170 1   
   177  177  178 1   
   178  177  182 1   
   179  178  179 1   
   180  178  180 1   
   181  178  181 1   
   182  184  185 1   
   183  184  186 1   
   184  187  188 1   
   185  187  189 1   
@<TRIPOS>SUBSTRUCTURE
     1 MOL         1 TEMP              0 ****  ****    0 ROOT
