@<TRIPOS>MOLECULE
MOL
  185   180     1     0     0
SMALL
resp


@<TRIPOS>ATOM
      1 C1         -6.5860    2.4740    3.0780 c3        1 MOL     -0.475245
      2 C2         -7.0540    1.2210    2.2880 c         1 MOL      0.544607
      3 O1         -6.3400    0.4920    1.5920 o         1 MOL     -0.524127
      4 H1         -7.2930    2.6810    3.8820 hc        1 MOL      0.133487
      5 H2         -5.5990    2.2900    3.5010 hc        1 MOL      0.133487
      6 H3         -6.5390    3.3320    2.4060 hc        1 MOL      0.133487
      7 N1         -8.3330    0.8630    2.4140 n         1 MOL     -0.398303
      8 C3         -8.9660   -0.4620    2.0040 c3        1 MOL      0.201085
      9 C4         -8.7910   -0.8450    0.5290 c         1 MOL      0.214950
     10 O2         -8.5460   -2.0010    0.1360 o         1 MOL     -0.421915
     11 C5         -8.4660   -1.6380    2.8530 c3        1 MOL     -0.337963
     12 C6         -9.4390   -2.7880    2.9320 c         1 MOL      0.718434
     13 O3         -9.1350   -3.7830    3.6100 o         1 MOL     -0.680069
     14 O4        -10.6160   -2.6260    2.4550 o         1 MOL     -0.680069
     15 H4         -8.9140    1.5110    2.9260 hn        1 MOL      0.254936
     16 H5        -10.0350   -0.2650    2.1380 h1        1 MOL      0.017395
     17 H6         -8.2240   -1.3340    3.8720 hc        1 MOL      0.115914
     18 H7         -7.5960   -2.1490    2.4110 hc        1 MOL      0.115914
     19 N2         -8.7380    0.2090   -0.3310 n         1 MOL     -0.113537
     20 C7         -8.5270    0.0480   -1.7540 c3        1 MOL      0.016091
     21 C8         -7.0910    0.4950   -2.2140 c         1 MOL      0.493555
     22 O5         -7.0770    0.7330   -3.4980 o         1 MOL     -0.599106
     23 C9         -9.7160    0.7970   -2.4450 c3        1 MOL      0.127184
     24 C10       -11.0660    0.2130   -1.9190 c3        1 MOL      0.251372
     25 C11       -12.2460    0.8640   -2.5600 c3        1 MOL     -0.279372
     26 C12       -12.0730    2.3860   -2.4510 c3        1 MOL      0.266338
     27 N3        -13.3490    3.1490   -2.5940 n4        1 MOL     -0.367059
     28 H8         -8.8600    1.1370    0.0470 hn        1 MOL      0.112412
     29 H9         -8.5350   -0.9650   -2.1460 h1        1 MOL      0.092227
     30 H10        -9.6620    0.6080   -3.5160 hc        1 MOL     -0.030195
     31 H11        -9.5600    1.8600   -2.2650 hc        1 MOL     -0.030195
     32 H12       -11.1910    0.3770   -0.8440 hc        1 MOL     -0.031712
     33 H13       -11.0840   -0.8710   -2.0410 hc        1 MOL     -0.031712
     34 H14       -13.1510    0.5660   -2.0220 hc        1 MOL      0.075701
     35 H15       -12.2130    0.4700   -3.5680 hc        1 MOL      0.075701
     36 H16       -11.3380    2.6820   -3.2000 hx        1 MOL     -0.010875
     37 H17       -11.6280    2.6520   -1.4910 hx        1 MOL     -0.010875
     38 H18       -13.6240    3.1530   -3.5750 hn        1 MOL      0.250154
     39 H19       -14.0700    2.6660   -2.0820 hn        1 MOL      0.250154
     40 H20       -13.2920    4.0480   -2.1500 hn        1 MOL      0.250154
     41 N4         -6.0730    0.6930   -1.4260 n         1 MOL     -0.346452
     42 C13        -4.7110    0.9060   -1.7640 c3        1 MOL     -0.059612
     43 C14        -4.1600   -0.3060   -2.5880 c         1 MOL      0.640223
     44 O6         -4.3280   -1.4830   -2.0980 o         1 MOL     -0.492011
     45 C15        -3.9750    1.1070   -0.4550 c3        1 MOL     -0.076439
     46 C16        -2.4990    1.2120   -0.7690 c         1 MOL      0.589948
     47 O7         -1.9540    2.3410   -0.8160 o         1 MOL     -0.731088
     48 O8         -1.7530    0.2260   -1.0610 o         1 MOL     -0.731088
     49 H21        -6.2500    0.6820   -0.4310 hn        1 MOL      0.230143
     50 H22        -4.5840    1.8390   -2.3070 h1        1 MOL      0.050574
     51 H23        -4.1980    0.2870    0.2260 hc        1 MOL      0.077931
     52 H24        -4.2790    2.0400    0.0280 hc        1 MOL      0.077931
     53 N5         -3.5210   -0.0610   -3.7390 n         1 MOL     -0.419571
     54 C17        -3.0430   -1.0450   -4.6870 c3        1 MOL     -0.083221
     55 C18        -1.8510   -1.9210   -4.2650 c         1 MOL      0.464304
     56 O9         -1.3730   -2.7540   -5.1140 o         1 MOL     -0.557736
     57 H25        -3.2220    0.8900   -3.8880 hn        1 MOL      0.246371
     58 H26        -2.7940   -0.6930   -5.6950 h1        1 MOL      0.119908
     59 H27        -3.8840   -1.7350   -4.8040 h1        1 MOL      0.119908
     60 N6         -1.4130   -1.8810   -3.0100 n         1 MOL     -0.228336
     61 C19        -0.6730   -3.0080   -2.3240 c3        1 MOL     -0.012042
     62 C20        -1.0640   -3.2430   -0.8400 c         1 MOL      0.195454
     63 O10        -0.1730   -3.5540   -0.0250 o         1 MOL     -0.264511
     64 C21         0.8580   -2.9170   -2.4850 c3        1 MOL     -0.210227
     65 C22         1.5790   -1.6130   -2.1680 c         1 MOL      0.598004
     66 N7          2.7330   -1.4360   -2.7720 n         1 MOL     -0.665224
     67 O11         1.1580   -0.7380   -1.4140 o         1 MOL     -0.598215
     68 H28        -1.7640   -1.1250   -2.4520 hn        1 MOL      0.096896
     69 H29        -0.9600   -3.9140   -2.8680 h1        1 MOL      0.147527
     70 H30         1.1250   -3.1400   -3.5180 hc        1 MOL      0.102863
     71 H31         1.2820   -3.7440   -1.9250 hc        1 MOL      0.102863
     72 H32         3.0510   -2.1980   -3.3540 hn        1 MOL      0.331760
     73 H33         3.1900   -0.5550   -2.8990 hn        1 MOL      0.331760
     74 N8         -2.3420   -2.9230   -0.5080 n         1 MOL     -0.050130
     75 C23        -2.8310   -3.0590    0.8610 c3        1 MOL     -0.326560
     76 C24        -2.2690   -2.1540    1.9570 c         1 MOL      0.722307
     77 O12        -2.3760   -2.4940    3.1460 o         1 MOL     -0.551317
     78 H34        -3.0380   -2.5190   -1.1190 hn        1 MOL      0.172418
     79 H35        -2.7490   -4.1200    1.0590 h1        1 MOL      0.157165
     80 H36        -3.8860   -2.7910    0.8800 h1        1 MOL      0.157165
     81 N9         -1.6170   -1.0200    1.6070 n         1 MOL     -0.869489
     82 C25        -0.9080   -0.0540    2.5430 c3        1 MOL      0.605893
     83 C26         0.4420    0.2640    1.8890 c         1 MOL      0.426034
     84 O13         0.5250    0.9620    0.9570 o         1 MOL     -0.663938
     85 C27        -1.7710    1.1920    2.7380 c3        1 MOL     -0.513714
     86 C28        -1.1640    2.3090    3.4870 ca        1 MOL      0.348268
     87 C29        -0.4810    2.0750    4.6650 ca        1 MOL     -0.335773
     88 C30        -1.2350    3.6090    2.9420 ca        1 MOL     -0.335773
     89 C31         0.0200    3.1280    5.4400 ca        1 MOL     -0.146509
     90 C32        -0.6850    4.6720    3.6320 ca        1 MOL     -0.146509
     91 C33        -0.0890    4.4480    4.8520 ca        1 MOL      0.200054
     92 O14         0.3440    5.4970    5.6010 oh        1 MOL     -0.421326
     93 H37        -1.5670   -0.7130    0.6360 hn        1 MOL      0.494668
     94 H38        -0.7980   -0.4980    3.5420 h1        1 MOL     -0.048936
     95 H39        -2.5790    0.7990    3.3670 hc        1 MOL      0.165112
     96 H40        -2.0370    1.4890    1.7270 hc        1 MOL      0.165112
     97 H41        -0.3270    1.0610    5.0190 ha        1 MOL      0.171649
     98 H42        -1.7980    3.7650    2.0360 ha        1 MOL      0.171649
     99 H43         0.4790    3.0390    6.4130 ha        1 MOL      0.137383
    100 H44        -0.7700    5.6910    3.3040 ha        1 MOL      0.137383
    101 H45        -0.0090    6.3140    5.2560 ho        1 MOL      0.336790
    102 N10         1.5040   -0.3150    2.4530 n         1 MOL     -0.330455
    103 C34         2.9500   -0.0580    2.1020 c3        1 MOL      0.081317
    104 C35         3.6230   -1.1480    1.3250 c         1 MOL      0.203962
    105 O15         4.4570   -0.9800    0.4090 o         1 MOL     -0.484709
    106 C36         3.6950    0.2160    3.4300 c3        1 MOL     -0.088330
    107 C37         3.1550    1.3860    4.3450 c3        1 MOL     -0.255901
    108 C38         5.1960    0.5460    3.1960 c3        1 MOL     -0.157161
    109 C39         3.1730    2.7650    3.6520 c3        1 MOL     -0.372073
    110 H46         1.4120   -0.9290    3.2530 hn        1 MOL      0.235568
    111 H47         2.9440    0.8620    1.5150 h1        1 MOL      0.172384
    112 H48         3.7070   -0.7370    3.9600 hc        1 MOL      0.029984
    113 H49         3.9110    1.6020    5.1040 hc        1 MOL      0.140820
    114 H50         2.2230    1.0570    4.8070 hc        1 MOL      0.140820
    115 H51         5.2350    1.3180    2.4360 hc        1 MOL      0.077113
    116 H52         5.6920    0.6950    4.1610 hc        1 MOL      0.077113
    117 H53         5.6600   -0.3150    2.7090 hc        1 MOL      0.077113
    118 H54         2.5700    2.6000    2.7650 hc        1 MOL      0.114098
    119 H55         2.6940    3.4910    4.3080 hc        1 MOL      0.114098
    120 H56         4.2130    3.0500    3.4840 hc        1 MOL      0.114098
    121 N11         3.2030   -2.3900    1.5580 n         1 MOL     -0.011220
    122 C40         3.3670   -3.5830    0.7070 c3        1 MOL     -0.150403
    123 C41         4.8440   -3.9670    0.3870 c         1 MOL      0.469877
    124 O16         5.1260   -4.2560   -0.7780 o         1 MOL     -0.490814
    125 C42         2.5960   -4.7230    1.3100 c3        1 MOL      0.103309
    126 O17         1.4150   -4.3030    2.0790 oh        1 MOL     -0.471519
    127 H57         2.5230   -2.4640    2.3040 hn        1 MOL      0.136695
    128 H58         2.8370   -3.3410   -0.2160 h1        1 MOL      0.092974
    129 H59         3.2830   -5.3360    1.8860 h1        1 MOL      0.050834
    130 H60         2.2600   -5.3180    0.4580 h1        1 MOL      0.050834
    131 H61         0.8960   -3.9360    1.3570 ho        1 MOL      0.222456
    132 N12         5.7430   -3.8120    1.4290 n         1 MOL     -0.252945
    133 C43         7.1720   -4.1390    1.2860 c3        1 MOL      0.070167
    134 C44         7.9110   -3.5860    0.0650 c         1 MOL      0.455805
    135 O18         9.0440   -4.0100   -0.2550 o         1 MOL     -0.518020
    136 C45         7.2310   -5.6740    1.3900 c3        1 MOL     -0.315010
    137 H62         5.4270   -3.5110    2.3400 hn        1 MOL      0.227803
    138 H63         7.6080   -3.7300    2.2020 h1        1 MOL      0.080546
    139 H64         8.2360   -5.9900    1.6450 hc        1 MOL      0.094389
    140 H65         6.5050   -6.0210    2.1240 hc        1 MOL      0.094389
    141 H66         6.9030   -6.1520    0.4620 hc        1 MOL      0.094389
    142 N13         7.3550   -2.5040   -0.4830 n         1 MOL     -0.397406
    143 C46         7.9890   -1.7290   -1.5640 c3        1 MOL      0.398368
    144 C47         8.5890   -0.4370   -0.9540 c         1 MOL      0.437386
    145 O19         8.1580    0.1610    0.0310 o         1 MOL     -0.486378
    146 C48         6.9130   -1.3770   -2.5460 c3        1 MOL     -0.161097
    147 H67         6.5960   -2.0000   -0.0540 hn        1 MOL      0.158901
    148 H68         8.8160   -2.2440   -2.0510 h1        1 MOL     -0.015595
    149 H69         7.2420   -0.6930   -3.3350 hc        1 MOL      0.039220
    150 H70         6.5800   -2.2620   -3.1000 hc        1 MOL      0.039220
    151 H71         6.0870   -0.8970   -2.0300 hc        1 MOL      0.039220
    152 N14         9.4540    0.2270   -1.7210 n         1 MOL     -0.744176
    153 C49         9.8780    1.5690   -1.4950 c3        1 MOL      0.516564
    154 C50        10.6090    1.7920   -0.1810 c         1 MOL      0.233093
    155 O20        10.7560    2.9610    0.2440 o         1 MOL     -0.473686
    156 C51         8.8840    2.6470   -1.9490 c3        1 MOL     -0.180402
    157 C52         9.4820    3.9790   -2.3290 c3        1 MOL     -0.414774
    158 C53         8.5300    4.9300   -3.1390 c         1 MOL      0.752256
    159 O21         8.5360    4.9280   -4.3810 o         1 MOL     -0.667516
    160 O22         7.8740    5.8430   -2.5630 o         1 MOL     -0.667516
    161 H72         9.6500   -0.1900   -2.6200 hn        1 MOL      0.343279
    162 H73        10.7080    1.6160   -2.2100 h1        1 MOL     -0.032841
    163 H74         8.1890    2.7860   -1.1200 hc        1 MOL      0.075756
    164 H75         8.2800    2.2190   -2.7450 hc        1 MOL      0.075756
    165 H76        10.3000    3.7240   -3.0030 hc        1 MOL      0.123345
    166 H77         9.7210    4.5850   -1.4560 hc        1 MOL      0.123345
    167 N15        11.0560    0.7710    0.4910 n         1 MOL     -0.206931
    168 C54        11.4190    0.7200    1.8910 c3        1 MOL     -0.069015
    169 H78        10.8810    1.4980    2.4340 h1        1 MOL      0.065868
    170 H79        11.1560   -0.2550    2.3000 h1        1 MOL      0.065868
    171 H80        12.4920    0.8810    1.9950 h1        1 MOL      0.065868
    172 H81        10.9070   -0.1420    0.0870 hn        1 MOL      0.215324
    173 Ca1         0.3870    1.7610   -1.5540 Ca        1 MOL      1.821775
    174 O23         0.7080    3.8360    0.3590 oh        1 MOL     -0.867973
    175 H82         0.2470    3.8170    1.1910 ho        1 MOL      0.430542
    176 H83         1.4300    4.4560    0.4940 ho        1 MOL      0.430542
    177 O24        -0.5600    1.4300   -3.9170 oh        1 MOL     -0.867973
    178 H84        -1.3720    1.9270   -3.9870 ho        1 MOL      0.430542
    179 H85        -0.4500    1.0220   -4.7750 ho        1 MOL      0.430542
    180 O25         2.9520    2.1010   -1.6780 oh        1 MOL     -0.867973
    181 H86         3.5060    1.5660   -2.2430 ho        1 MOL      0.430542
    182 H87         3.5590    2.6280   -1.1700 ho        1 MOL      0.430542
    183 O26         0.1560    4.1890   -2.6080 oh        1 MOL     -0.867973
    184 H88        -0.0790    4.9330   -2.0570 ho        1 MOL      0.430542
    185 H89         0.3510    4.5790   -3.4620 ho        1 MOL      0.430542
@<TRIPOS>BOND
     1    1    2 1   
     2    1    4 1   
     3    1    5 1   
     4    1    6 1   
     5    2    3 2   
     6    2    7 1   
     7    7    8 1   
     8    7   15 1   
     9    8    9 1   
    10    8   11 1   
    11    8   16 1   
    12    9   10 2   
    13    9   19 1   
    14   11   12 1   
    15   11   17 1   
    16   11   18 1   
    17   12   13 1   
    18   12   14 1   
    19   19   20 1   
    20   19   28 1   
    21   20   21 1   
    22   20   23 1   
    23   20   29 1   
    24   21   22 2   
    25   21   41 1   
    26   23   24 1   
    27   23   30 1   
    28   23   31 1   
    29   24   25 1   
    30   24   32 1   
    31   24   33 1   
    32   25   26 1   
    33   25   34 1   
    34   25   35 1   
    35   26   27 1   
    36   26   36 1   
    37   26   37 1   
    38   27   38 1   
    39   27   39 1   
    40   27   40 1   
    41   41   42 1   
    42   41   49 1   
    43   42   43 1   
    44   42   45 1   
    45   42   50 1   
    46   43   44 2   
    47   43   53 1   
    48   45   46 1   
    49   45   51 1   
    50   45   52 1   
    51   46   47 1   
    52   46   48 1   
    53   53   54 1   
    54   53   57 1   
    55   54   55 1   
    56   54   58 1   
    57   54   59 1   
    58   55   56 2   
    59   55   60 1   
    60   60   61 1   
    61   60   68 1   
    62   61   62 1   
    63   61   64 1   
    64   61   69 1   
    65   62   63 2   
    66   62   74 1   
    67   64   65 1   
    68   64   70 1   
    69   64   71 1   
    70   65   66 1   
    71   65   67 2   
    72   66   72 1   
    73   66   73 1   
    74   74   75 1   
    75   74   78 1   
    76   75   76 1   
    77   75   79 1   
    78   75   80 1   
    79   76   77 2   
    80   76   81 1   
    81   81   82 1   
    82   81   93 1   
    83   82   83 1   
    84   82   85 1   
    85   82   94 1   
    86   83   84 2   
    87   83  102 1   
    88   85   86 1   
    89   85   95 1   
    90   85   96 1   
    91   86   87 ar  
    92   86   88 ar  
    93   87   89 ar  
    94   87   97 1   
    95   88   90 ar  
    96   88   98 1   
    97   89   91 ar  
    98   89   99 1   
    99   90   91 ar  
   100   90  100 1   
   101   91   92 1   
   102   92  101 1   
   103  102  103 1   
   104  102  110 1   
   105  103  104 1   
   106  103  106 1   
   107  103  111 1   
   108  104  105 2   
   109  104  121 1   
   110  106  107 1   
   111  106  108 1   
   112  106  112 1   
   113  107  109 1   
   114  107  113 1   
   115  107  114 1   
   116  108  115 1   
   117  108  116 1   
   118  108  117 1   
   119  109  118 1   
   120  109  119 1   
   121  109  120 1   
   122  121  122 1   
   123  121  127 1   
   124  122  123 1   
   125  122  125 1   
   126  122  128 1   
   127  123  124 2   
   128  123  132 1   
   129  125  126 1   
   130  125  129 1   
   131  125  130 1   
   132  126  131 1   
   133  132  133 1   
   134  132  137 1   
   135  133  134 1   
   136  133  136 1   
   137  133  138 1   
   138  134  135 2   
   139  134  142 1   
   140  136  139 1   
   141  136  140 1   
   142  136  141 1   
   143  142  143 1   
   144  142  147 1   
   145  143  144 1   
   146  143  146 1   
   147  143  148 1   
   148  144  145 2   
   149  144  152 1   
   150  146  149 1   
   151  146  150 1   
   152  146  151 1   
   153  152  153 1   
   154  152  161 1   
   155  153  154 1   
   156  153  156 1   
   157  153  162 1   
   158  154  155 2   
   159  154  167 1   
   160  156  157 1   
   161  156  163 1   
   162  156  164 1   
   163  157  158 1   
   164  157  165 1   
   165  157  166 1   
   166  158  159 1   
   167  158  160 1   
   168  167  168 1   
   169  167  172 1   
   170  168  169 1   
   171  168  170 1   
   172  168  171 1   
   173  174  175 1   
   174  174  176 1   
   175  177  178 1   
   176  177  179 1   
   177  180  181 1   
   178  180  182 1   
   179  183  184 1   
   180  183  185 1   
@<TRIPOS>SUBSTRUCTURE
     1 MOL         1 TEMP              0 ****  ****    0 ROOT
