@<TRIPOS>MOLECULE
MOL
  192   187     1     0     0
SMALL
resp


@<TRIPOS>ATOM
      1 C1          4.0070   -1.8860   -3.2390 c3        1 MOL     -0.621457
      2 C2          3.1420   -2.3640   -1.9870 c         1 MOL      0.832508
      3 O1          2.2070   -1.6890   -1.5810 o         1 MOL     -0.527850
      4 H1          4.6920   -1.0980   -2.9280 hc        1 MOL      0.151426
      5 H2          4.5760   -2.7290   -3.6310 hc        1 MOL      0.151426
      6 H3          3.3430   -1.5040   -4.0150 hc        1 MOL      0.151426
      7 N1          3.4120   -3.4710   -1.3210 n         1 MOL     -0.725749
      8 C3          2.8070   -4.0470   -0.1190 c3        1 MOL     -0.014955
      9 C4          1.3290   -4.2130   -0.1050 c         1 MOL      0.739249
     10 O2          0.6280   -4.1280    0.9610 o         1 MOL     -0.515015
     11 C5          3.4540   -3.4910    1.2010 c3        1 MOL     -0.478656
     12 C6          4.9710   -3.6710    1.4110 c         1 MOL      0.978929
     13 O3          5.5020   -4.5950    0.7690 o         1 MOL     -0.791816
     14 O4          5.6390   -2.9690    2.2540 o         1 MOL     -0.791816
     15 H4          4.0510   -4.1400   -1.7320 hn        1 MOL      0.315739
     16 H5          3.1530   -5.0750   -0.2050 h1        1 MOL      0.111443
     17 H6          3.0270   -4.0050    2.0660 hc        1 MOL      0.136643
     18 H7          3.2860   -2.4260    1.4050 hc        1 MOL      0.136643
     19 N2          0.7580   -4.4570   -1.2750 n         1 MOL     -0.530414
     20 C7         -0.6610   -4.7760   -1.5140 c3        1 MOL     -0.437212
     21 C8         -1.1900   -6.0840   -0.8120 c         1 MOL      0.562641
     22 O5         -0.3940   -6.9670   -0.5280 o         1 MOL     -0.542612
     23 C9         -1.0180   -4.6000   -2.9580 c3        1 MOL      0.633953
     24 C10        -0.5440   -5.7890   -3.8290 c3        1 MOL      0.066700
     25 C11        -0.6350   -3.1960   -3.4930 c3        1 MOL     -0.223766
     26 C12        -1.3050   -5.8740   -5.1940 c3        1 MOL     -0.166292
     27 H8          1.4140   -4.2940   -2.0180 hn        1 MOL      0.316131
     28 H9         -1.2400   -3.9840   -1.0290 h1        1 MOL      0.178170
     29 H10        -2.1100   -4.6200   -2.9810 hc        1 MOL     -0.050402
     30 H11        -0.6530   -6.7430   -3.3250 hc        1 MOL     -0.033845
     31 H12         0.4980   -5.5890   -4.0610 hc        1 MOL     -0.033845
     32 H13         0.4140   -2.9240   -3.5980 hc        1 MOL      0.023001
     33 H14        -1.0270   -3.1430   -4.5160 hc        1 MOL      0.023001
     34 H15        -1.2590   -2.5130   -2.9110 hc        1 MOL      0.023001
     35 H16        -0.6260   -5.5380   -5.9740 hc        1 MOL      0.019903
     36 H17        -1.5970   -6.9060   -5.4030 hc        1 MOL      0.019903
     37 H18        -2.1560   -5.2040   -5.2600 hc        1 MOL      0.019903
     38 N3         -2.5150   -6.2700   -0.4310 n         1 MOL     -0.545933
     39 C13        -3.7400   -5.4900   -0.8170 c3        1 MOL      0.302953
     40 C14        -4.6940   -5.5610    0.4020 c         1 MOL      0.413930
     41 O6         -5.8810   -5.8220    0.2770 o         1 MOL     -0.455398
     42 C15        -4.3600   -6.1860   -2.0760 c3        1 MOL     -0.471533
     43 C16        -5.4890   -5.4980   -2.7570 c         1 MOL      0.778118
     44 O7         -5.9450   -5.9280   -3.8800 o         1 MOL     -0.707555
     45 O8         -5.9490   -4.4290   -2.2770 o         1 MOL     -0.707555
     46 H19        -2.5820   -6.9670    0.2940 hn        1 MOL      0.282368
     47 H20        -3.4660   -4.4490   -1.0350 h1        1 MOL      0.016527
     48 H21        -4.5900   -7.1930   -1.7270 hc        1 MOL      0.106890
     49 H22        -3.5760   -6.2210   -2.8340 hc        1 MOL      0.106890
     50 N4         -4.1940   -5.4040    1.6260 n         1 MOL     -0.295987
     51 C17        -5.0290   -5.5030    2.8210 c3        1 MOL     -0.228991
     52 C18        -5.7700   -4.1790    3.2750 c         1 MOL      0.532682
     53 O9         -6.5700   -4.3200    4.2460 o         1 MOL     -0.563402
     54 H23        -3.1890   -5.3740    1.7750 hn        1 MOL      0.275297
     55 H24        -4.4000   -5.8540    3.6380 h1        1 MOL      0.109740
     56 H25        -5.7310   -6.3320    2.6730 h1        1 MOL      0.109740
     57 N5         -5.3480   -2.9800    2.7640 n         1 MOL     -0.230879
     58 C19        -5.9250   -1.6980    3.1380 c3        1 MOL     -0.063638
     59 C20        -6.8810   -1.1460    2.0970 c         1 MOL      0.534205
     60 O10        -7.9320   -0.6460    2.4710 o         1 MOL     -0.554924
     61 C21        -4.8190   -0.6530    3.3860 c3        1 MOL     -0.181941
     62 C22        -3.7360   -0.7210    2.3050 c         1 MOL      0.746577
     63 O11        -3.8180    0.1110    1.3310 o         1 MOL     -0.694903
     64 O12        -2.8370   -1.5930    2.3400 o         1 MOL     -0.694903
     65 H26        -4.6500   -2.9660    2.0400 hn        1 MOL      0.130710
     66 H27        -6.5290   -1.8610    4.0300 h1        1 MOL      0.095351
     67 H28        -4.2000   -0.8910    4.2600 hc        1 MOL      0.038038
     68 H29        -5.1140    0.3850    3.5030 hc        1 MOL      0.038038
     69 N6         -6.5140   -1.1650    0.8090 n         1 MOL     -0.331205
     70 C23        -7.3420   -0.5940   -0.2790 c3        1 MOL     -0.159316
     71 C24        -7.3830    0.9110   -0.3090 c         1 MOL      0.391419
     72 O13        -8.2370    1.5430   -0.9590 o         1 MOL     -0.599609
     73 H30        -5.5460   -1.3700    0.6680 hn        1 MOL      0.309789
     74 H31        -8.3830   -0.8980   -0.1560 h1        1 MOL      0.138593
     75 H32        -6.9820   -0.8260   -1.2830 h1        1 MOL      0.138593
     76 N7         -6.5590    1.5230    0.5090 n         1 MOL      0.134031
     77 C25        -6.4580    2.9810    0.8850 c3        1 MOL      0.143163
     78 C26        -6.2820    4.0310   -0.2590 c         1 MOL      0.467701
     79 O14        -6.8540    5.1440   -0.1880 o         1 MOL     -0.536918
     80 C27        -7.2740    3.4460    2.0840 c3        1 MOL     -0.079204
     81 C28        -7.2960    2.5320    3.2620 c3        1 MOL     -0.064333
     82 C29        -8.1320    3.0930    4.4830 c         1 MOL      0.559447
     83 N8         -9.4100    3.4350    4.2250 n         1 MOL     -0.720474
     84 O15        -7.6810    3.1100    5.5930 o         1 MOL     -0.546690
     85 H33        -5.9030    0.8920    0.9530 hn        1 MOL     -0.057695
     86 H34        -5.4430    2.9370    1.2800 h1        1 MOL      0.040474
     87 H35        -8.2380    3.7450    1.6690 hc        1 MOL      0.011390
     88 H36        -6.7240    4.3330    2.3790 hc        1 MOL      0.011390
     89 H37        -6.2850    2.2970    3.5910 hc        1 MOL      0.054974
     90 H38        -7.8780    1.6390    3.0470 hc        1 MOL      0.054974
     91 H39        -9.7140    3.5980    3.2750 hn        1 MOL      0.324559
     92 H40        -9.7190    4.0420    4.9710 hn        1 MOL      0.324559
     93 N9         -5.5210    3.6940   -1.3130 n         1 MOL     -0.356180
     94 C30        -5.2030    4.4880   -2.5220 c3        1 MOL     -0.167655
     95 C31        -3.7430    4.3750   -2.9650 c         1 MOL      0.531140
     96 O16        -3.2340    5.1510   -3.7520 o         1 MOL     -0.588127
     97 C32        -6.1920    4.1770   -3.7000 c3        1 MOL      0.488520
     98 C33        -6.0390    2.8130   -4.2860 c3        1 MOL     -0.427041
     99 C34        -7.6140    4.3800   -3.3470 c3        1 MOL     -0.427041
    100 H41        -5.1150    2.7620   -1.2970 hn        1 MOL      0.137498
    101 H42        -5.3840    5.5450   -2.2930 h1        1 MOL      0.120294
    102 H43        -6.0190    4.9410   -4.4590 hc        1 MOL     -0.070339
    103 H44        -5.9510    2.0620   -3.5110 hc        1 MOL      0.094861
    104 H45        -6.9050    2.6350   -4.9120 hc        1 MOL      0.094861
    105 H46        -5.1330    2.7140   -4.8920 hc        1 MOL      0.094861
    106 H47        -8.0200    3.6440   -2.6500 hc        1 MOL      0.094861
    107 H48        -7.7490    5.4040   -3.0140 hc        1 MOL      0.094861
    108 H49        -8.1300    4.2050   -4.2930 hc        1 MOL      0.094861
    109 N10        -3.0590    3.3350   -2.5820 n         1 MOL     -0.368164
    110 C35        -1.5920    3.2960   -2.6800 c3        1 MOL      0.333164
    111 C36        -1.0480    3.5060   -1.2990 c         1 MOL      0.445650
    112 O17        -1.7290    3.5470   -0.3100 o         1 MOL     -0.521337
    113 C37        -1.3510    1.9430   -3.3570 c3        1 MOL     -0.413102
    114 C38         0.1050    1.7660   -3.7220 c         1 MOL      0.718531
    115 N11         0.9320    1.0250   -3.0610 n         1 MOL     -0.798602
    116 O18         0.5980    2.4480   -4.6080 o         1 MOL     -0.601957
    117 H50        -3.5510    2.6650   -2.0120 hn        1 MOL      0.278506
    118 H51        -1.1540    4.0460   -3.3240 h1        1 MOL      0.034272
    119 H52        -1.9610    1.8700   -4.2600 hc        1 MOL      0.114638
    120 H53        -1.5950    1.1280   -2.6780 hc        1 MOL      0.114638
    121 H54         0.5020    0.3210   -2.4720 hn        1 MOL      0.353812
    122 H55         1.8780    0.9640   -3.4220 hn        1 MOL      0.353812
    123 N12         0.2790    3.5740   -1.2230 n         1 MOL     -0.372543
    124 C39         1.0370    3.6220   -0.0150 c3        1 MOL      0.158515
    125 C40         2.4550    4.0290   -0.3920 c         1 MOL      0.215332
    126 O19         2.9790    3.7290   -1.4480 o         1 MOL     -0.425299
    127 C41         1.1400    2.2450    0.7140 c3        1 MOL     -0.308847
    128 C42         1.8530    2.2320    2.0280 ca        1 MOL      0.134990
    129 C43         3.1970    1.6460    2.1170 ca        1 MOL     -0.167803
    130 C44         1.1850    2.6600    3.2120 ca        1 MOL     -0.167803
    131 C45         3.8550    1.5900    3.3980 ca        1 MOL     -0.221481
    132 C46         1.7750    2.5330    4.4600 ca        1 MOL     -0.221481
    133 C47         3.1320    2.0460    4.5530 ca        1 MOL      0.277615
    134 O20         3.5720    1.8290    5.8480 oh        1 MOL     -0.517809
    135 H56         0.7980    3.4540   -2.0830 hn        1 MOL      0.226859
    136 H57         0.6560    4.4460    0.5960 h1        1 MOL      0.064833
    137 H58         1.5700    1.5380    0.0030 hc        1 MOL      0.139653
    138 H59         0.0760    2.0260    0.8920 hc        1 MOL      0.139653
    139 H60         3.6790    1.1610    1.2800 ha        1 MOL      0.140675
    140 H61         0.2000    3.0930    3.1120 ha        1 MOL      0.140675
    141 H62         4.8370    1.1530    3.4790 ha        1 MOL      0.151622
    142 H63         1.2350    2.8410    5.3400 ha        1 MOL      0.151622
    143 H64         4.5080    1.6180    5.7870 ho        1 MOL      0.381818
    144 N13         3.1950    4.8170    0.4280 n         1 MOL     -0.224816
    145 C48         4.6210    5.0700    0.3280 c3        1 MOL     -0.000360
    146 C49         5.4460    3.9570    1.1120 c         1 MOL      0.466695
    147 O21         5.8260    4.1500    2.2430 o         1 MOL     -0.575282
    148 C50         5.0260    6.4810    0.8100 c3        1 MOL      0.142937
    149 C51         4.3460    7.6830    0.1150 c3        1 MOL     -0.180239
    150 C52         4.8870    9.1020    0.5940 c         1 MOL      0.680182
    151 O22         5.7090    9.7740   -0.0410 o         1 MOL     -0.686796
    152 O23         4.5240    9.4760    1.7510 o         1 MOL     -0.686796
    153 H65         2.8120    4.8880    1.3610 hn        1 MOL      0.225385
    154 H66         4.8430    5.0480   -0.7470 h1        1 MOL      0.131233
    155 H67         6.1030    6.6400    0.7800 hc        1 MOL     -0.002276
    156 H68         4.7140    6.6450    1.8440 hc        1 MOL     -0.002276
    157 H69         3.2800    7.6260    0.2960 hc        1 MOL     -0.014907
    158 H70         4.5930    7.6420   -0.9480 hc        1 MOL     -0.014907
    159 N14         5.8180    2.8240    0.5570 n         1 MOL     -0.313022
    160 C53         5.5890    2.3400   -0.8080 c3        1 MOL     -0.184636
    161 C54         6.1350    3.2560   -1.9280 c         1 MOL      0.474467
    162 O24         7.2270    3.7590   -1.7840 o         1 MOL     -0.531054
    163 C55         6.3130    0.9850   -0.8870 c3        1 MOL      0.001510
    164 C56         5.9240   -0.2240   -0.0760 c3        1 MOL      0.033490
    165 C57         7.1040   -1.2770   -0.0330 c         1 MOL      0.627383
    166 O25         7.1250   -2.2070   -0.8710 o         1 MOL     -0.709839
    167 O26         7.9200   -1.3330    0.8990 o         1 MOL     -0.709839
    168 H71         6.4280    2.2440    1.1310 hn        1 MOL      0.283079
    169 H72         4.5420    2.1290   -1.0100 h1        1 MOL      0.120324
    170 H73         7.3530    1.1720   -0.5940 hc        1 MOL      0.007465
    171 H74         6.2710    0.6280   -1.9180 hc        1 MOL      0.007465
    172 H75         5.0880   -0.6580   -0.6020 hc        1 MOL     -0.000193
    173 H76         5.6630    0.0270    0.9490 hc        1 MOL     -0.000193
    174 N15         5.3850    3.3040   -3.0040 n         1 MOL     -0.279691
    175 C58         5.4990    4.2660   -4.1160 c3        1 MOL     -0.149251
    176 H77         6.4410    4.8090   -4.0300 h1        1 MOL      0.083380
    177 H78         5.4750    3.7310   -5.0650 h1        1 MOL      0.083380
    178 H79         4.6690    4.9710   -4.0750 h1        1 MOL      0.083380
    179 H80         4.5670    2.7070   -2.9830 hn        1 MOL      0.265909
    180 Ca1         8.0340   -3.9410    0.9390 Ca        1 MOL      1.742603
    181 O27         9.5280   -6.3060    0.7110 oh        1 MOL     -0.886104
    182 O28         7.5000   -5.0860    3.2810 oh        1 MOL     -0.886104
    183 H81         9.7170   -7.1010    0.2080 ho        1 MOL      0.404934
    184 H82         6.7350   -4.5750    3.5530 ho        1 MOL      0.404934
    185 H83        10.2130   -6.2840    1.3840 ho        1 MOL      0.404934
    186 H84         7.9020   -5.3560    4.1050 ho        1 MOL      0.404934
    187 O29         9.4830   -2.9040    2.9950 oh        1 MOL     -0.886104
    188 H85        10.2130   -2.2930    2.8590 ho        1 MOL      0.404934
    189 H86         9.5250   -3.1290    3.9190 ho        1 MOL      0.404934
    190 O30        10.1580   -3.6790   -0.7190 oh        1 MOL     -0.886104
    191 H87        11.0670   -3.6100   -0.4070 ho        1 MOL      0.404934
    192 H88        10.2360   -3.9580   -1.6230 ho        1 MOL      0.404934
@<TRIPOS>BOND
     1    1    2 1   
     2    1    4 1   
     3    1    5 1   
     4    1    6 1   
     5    2    3 2   
     6    2    7 1   
     7    7    8 1   
     8    7   15 1   
     9    8    9 1   
    10    8   11 1   
    11    8   16 1   
    12    9   10 2   
    13    9   19 1   
    14   11   12 1   
    15   11   17 1   
    16   11   18 1   
    17   12   13 1   
    18   12   14 1   
    19   19   20 1   
    20   19   27 1   
    21   20   21 1   
    22   20   23 1   
    23   20   28 1   
    24   21   22 2   
    25   21   38 1   
    26   23   24 1   
    27   23   25 1   
    28   23   29 1   
    29   24   26 1   
    30   24   30 1   
    31   24   31 1   
    32   25   32 1   
    33   25   33 1   
    34   25   34 1   
    35   26   35 1   
    36   26   36 1   
    37   26   37 1   
    38   38   39 1   
    39   38   46 1   
    40   39   40 1   
    41   39   42 1   
    42   39   47 1   
    43   40   41 2   
    44   40   50 1   
    45   42   43 1   
    46   42   48 1   
    47   42   49 1   
    48   43   44 1   
    49   43   45 1   
    50   50   51 1   
    51   50   54 1   
    52   51   52 1   
    53   51   55 1   
    54   51   56 1   
    55   52   53 2   
    56   52   57 1   
    57   57   58 1   
    58   57   65 1   
    59   58   59 1   
    60   58   61 1   
    61   58   66 1   
    62   59   60 2   
    63   59   69 1   
    64   61   62 1   
    65   61   67 1   
    66   61   68 1   
    67   62   63 1   
    68   62   64 1   
    69   69   70 1   
    70   69   73 1   
    71   70   71 1   
    72   70   74 1   
    73   70   75 1   
    74   71   72 2   
    75   71   76 1   
    76   76   77 1   
    77   76   85 1   
    78   77   78 1   
    79   77   80 1   
    80   77   86 1   
    81   78   79 2   
    82   78   93 1   
    83   80   81 1   
    84   80   87 1   
    85   80   88 1   
    86   81   82 1   
    87   81   89 1   
    88   81   90 1   
    89   82   83 1   
    90   82   84 2   
    91   83   91 1   
    92   83   92 1   
    93   93   94 1   
    94   93  100 1   
    95   94   95 1   
    96   94   97 1   
    97   94  101 1   
    98   95   96 2   
    99   95  109 1   
   100   97   98 1   
   101   97   99 1   
   102   97  102 1   
   103   98  103 1   
   104   98  104 1   
   105   98  105 1   
   106   99  106 1   
   107   99  107 1   
   108   99  108 1   
   109  109  110 1   
   110  109  117 1   
   111  110  111 1   
   112  110  113 1   
   113  110  118 1   
   114  111  112 2   
   115  111  123 1   
   116  113  114 1   
   117  113  119 1   
   118  113  120 1   
   119  114  115 1   
   120  114  116 2   
   121  115  121 1   
   122  115  122 1   
   123  123  124 1   
   124  123  135 1   
   125  124  125 1   
   126  124  127 1   
   127  124  136 1   
   128  125  126 2   
   129  125  144 1   
   130  127  128 1   
   131  127  137 1   
   132  127  138 1   
   133  128  129 ar  
   134  128  130 ar  
   135  129  131 ar  
   136  129  139 1   
   137  130  132 ar  
   138  130  140 1   
   139  131  133 ar  
   140  131  141 1   
   141  132  133 ar  
   142  132  142 1   
   143  133  134 1   
   144  134  143 1   
   145  144  145 1   
   146  144  153 1   
   147  145  146 1   
   148  145  148 1   
   149  145  154 1   
   150  146  147 2   
   151  146  159 1   
   152  148  149 1   
   153  148  155 1   
   154  148  156 1   
   155  149  150 1   
   156  149  157 1   
   157  149  158 1   
   158  150  151 1   
   159  150  152 1   
   160  159  160 1   
   161  159  168 1   
   162  160  161 1   
   163  160  163 1   
   164  160  169 1   
   165  161  162 2   
   166  161  174 1   
   167  163  164 1   
   168  163  170 1   
   169  163  171 1   
   170  164  165 1   
   171  164  172 1   
   172  164  173 1   
   173  165  166 1   
   174  165  167 1   
   175  174  175 1   
   176  174  179 1   
   177  175  176 1   
   178  175  177 1   
   179  175  178 1   
   180  181  183 1   
   181  181  185 1   
   182  182  184 1   
   183  182  186 1   
   184  187  188 1   
   185  187  189 1   
   186  190  191 1   
   187  190  192 1   
@<TRIPOS>SUBSTRUCTURE
     1 MOL         1 TEMP              0 ****  ****    0 ROOT
