@<TRIPOS>MOLECULE
MOL
  181   177     1     0     0
SMALL
resp


@<TRIPOS>ATOM
      1 C1         -0.5730    6.9660    1.0360 c3        1 MOL     -0.427396
      2 C2         -2.0150    6.7980    0.4630 c         1 MOL      0.723462
      3 O1         -2.3120    7.2580   -0.6270 o         1 MOL     -0.614036
      4 H1          0.1470    6.9470    0.2180 hc        1 MOL      0.106141
      5 H2         -0.4990    7.9180    1.5620 hc        1 MOL      0.106141
      6 H3         -0.3590    6.1500    1.7260 hc        1 MOL      0.106141
      7 N1         -2.9250    6.1390    1.1850 n         1 MOL     -0.552840
      8 C3         -4.1520    5.7080    0.6120 c3        1 MOL      0.369576
      9 C4         -4.1300    4.4060   -0.2250 c         1 MOL      0.429233
     10 O2         -3.8220    3.3390    0.2360 o         1 MOL     -0.533266
     11 C5         -5.2280    5.5080    1.6140 c3        1 MOL     -0.393276
     12 C6         -5.6000    6.8230    2.3750 c         1 MOL      0.763274
     13 O3         -5.1010    7.9030    2.1150 o         1 MOL     -0.738035
     14 O4         -6.5950    6.7090    3.1290 o         1 MOL     -0.738035
     15 H4         -2.6560    5.6630    2.0320 hn        1 MOL      0.307451
     16 H5         -4.5470    6.3420   -0.1810 h1        1 MOL      0.015627
     17 H6         -4.8380    4.7920    2.3350 hc        1 MOL      0.060040
     18 H7         -6.1200    5.1030    1.1180 hc        1 MOL      0.060040
     19 N2         -4.5800    4.5080   -1.4040 n         1 MOL     -0.512517
     20 C7         -4.9690    3.3940   -2.2450 c3        1 MOL      0.372949
     21 C8         -3.7200    2.6150   -2.6910 c         1 MOL      0.304961
     22 O5         -2.5630    3.0770   -2.5100 o         1 MOL     -0.501164
     23 C9         -5.8310    3.9820   -3.4220 c3        1 MOL     -0.376156
     24 H8         -4.8920    5.4350   -1.6850 hn        1 MOL      0.292336
     25 H9         -5.6210    2.7300   -1.6730 h1        1 MOL      0.046602
     26 H10        -6.5780    4.6270   -2.9450 hc        1 MOL      0.100193
     27 H11        -5.1340    4.4860   -4.0870 hc        1 MOL      0.100193
     28 H12        -6.3000    3.1430   -3.9330 hc        1 MOL      0.100193
     29 N3         -3.8150    1.4030   -3.1650 n         1 MOL     -0.056165
     30 C10        -4.9450    0.4930   -3.4500 c3        1 MOL     -0.153371
     31 C11        -5.5990   -0.2880   -2.2890 c         1 MOL      0.664453
     32 O6         -4.9840   -0.4440   -1.2340 o         1 MOL     -0.578480
     33 C12        -4.3730   -0.6490   -4.3480 c3        1 MOL     -0.118670
     34 C13        -3.1730   -1.4630   -3.9290 c         1 MOL      0.701194
     35 O7         -3.0160   -2.6250   -4.4200 o         1 MOL     -0.671036
     36 O8         -2.2970   -0.9460   -3.2100 o         1 MOL     -0.671036
     37 H13        -2.9140    1.1500   -3.5410 hn        1 MOL      0.142273
     38 H14        -5.8010    1.0320   -3.8650 h1        1 MOL      0.009842
     39 H15        -4.1600   -0.2470   -5.3410 hc        1 MOL      0.019959
     40 H16        -5.1830   -1.3780   -4.4290 hc        1 MOL      0.019959
     41 N4         -6.8500   -0.7280   -2.5650 n         1 MOL     -0.413069
     42 C14        -7.5580   -1.4790   -1.5440 c3        1 MOL     -0.267969
     43 C15        -8.0420   -0.5600   -0.4310 c         1 MOL      0.544050
     44 O9         -8.7110    0.4720   -0.7730 o         1 MOL     -0.552528
     45 H17        -7.3090   -0.4410   -3.4260 hn        1 MOL      0.325028
     46 H18        -6.9250   -2.2940   -1.1980 h1        1 MOL      0.157743
     47 H19        -8.5070   -1.8390   -1.9660 h1        1 MOL      0.157743
     48 N5         -7.7100   -0.8330    0.8410 n         1 MOL     -0.441009
     49 C16        -7.2230   -2.0980    1.3960 c3        1 MOL     -0.001854
     50 C17        -6.3630   -1.8300    2.6140 c         1 MOL      0.591494
     51 O10        -6.6300   -1.0180    3.5170 o         1 MOL     -0.506710
     52 C18        -8.4890   -3.0580    1.7170 c3        1 MOL     -0.333602
     53 C19        -9.1790   -3.5860    0.4740 c         1 MOL      0.700074
     54 N6        -10.3240   -3.0280    0.2530 n         1 MOL     -0.778361
     55 O11        -8.6460   -4.2860   -0.3940 o         1 MOL     -0.566511
     56 H20        -7.9420   -0.1150    1.5010 hn        1 MOL      0.313487
     57 H21        -6.6700   -2.6070    0.6130 h1        1 MOL      0.061752
     58 H22        -9.1090   -2.5480    2.4510 hc        1 MOL      0.093823
     59 H23        -8.0160   -3.9320    2.1760 hc        1 MOL      0.093823
     60 H24       -10.5960   -2.3240    0.9340 hn        1 MOL      0.373215
     61 H25       -10.9210   -3.1940   -0.5490 hn        1 MOL      0.373215
     62 N7         -5.3140   -2.6710    2.6940 n         1 MOL     -0.329813
     63 C20        -4.4930   -2.6090    3.9030 c3        1 MOL     -0.127463
     64 C21        -3.0830   -3.3520    3.7940 c         1 MOL      0.484763
     65 O12        -2.7500   -4.1530    4.7030 o         1 MOL     -0.548415
     66 H26        -5.1660   -3.4070    2.0060 hn        1 MOL      0.261508
     67 H27        -5.1350   -2.9720    4.7130 h1        1 MOL      0.104807
     68 H28        -4.1850   -1.5850    4.0950 h1        1 MOL      0.104807
     69 N8         -2.5110   -3.2460    2.6170 n         1 MOL     -0.214839
     70 C22        -1.3580   -4.0580    2.2520 c3        1 MOL     -0.034981
     71 C23        -0.2130   -3.2030    1.6470 c         1 MOL      0.527298
     72 O13        -0.3470   -2.1510    1.0310 o         1 MOL     -0.537300
     73 C24        -1.7890   -5.2540    1.3770 c3        1 MOL      0.318032
     74 C25        -2.7760   -6.1910    2.0190 c3        1 MOL     -0.456542
     75 O14        -2.3650   -4.8190    0.1800 oh        1 MOL     -0.535884
     76 H29        -2.8610   -2.6530    1.8830 hn        1 MOL      0.153538
     77 H30        -0.9220   -4.5140    3.1370 h1        1 MOL      0.082271
     78 H31        -0.8780   -5.8270    1.2190 h1        1 MOL      0.007316
     79 H32        -2.1250   -5.5110   -0.4280 ho        1 MOL      0.384590
     80 H33        -2.9640   -6.9070    1.2140 hc        1 MOL      0.122407
     81 H34        -2.3280   -6.6520    2.9010 hc        1 MOL      0.122407
     82 H35        -3.6300   -5.6050    2.3230 hc        1 MOL      0.122407
     83 N9          1.0110   -3.7880    1.7900 n         1 MOL     -0.451082
     84 C26         2.2690   -3.0900    1.4260 c3        1 MOL      0.015973
     85 C27         2.7880   -3.4750    0.0850 c         1 MOL      0.381490
     86 O15         2.7730   -4.6970   -0.1830 o         1 MOL     -0.568027
     87 C28         3.3640   -3.2900    2.6200 c3        1 MOL      0.198845
     88 C29         4.6910   -2.7480    2.1580 c3        1 MOL      0.096340
     89 C30         2.7400   -2.6120    3.8470 c3        1 MOL     -0.352925
     90 C31         5.7070   -2.7640    3.3360 c3        1 MOL     -0.243156
     91 H36         1.0490   -4.6660    2.2740 hn        1 MOL      0.282064
     92 H37         2.0730   -2.0200    1.3770 h1        1 MOL      0.107503
     93 H38         3.4470   -4.3620    2.7850 hc        1 MOL     -0.018915
     94 H39         4.5180   -1.6800    2.0800 hc        1 MOL      0.011010
     95 H40         5.0580   -3.2690    1.2760 hc        1 MOL      0.011010
     96 H41         1.7630   -3.0830    3.9680 hc        1 MOL      0.077236
     97 H42         3.3750   -2.7610    4.7190 hc        1 MOL      0.077236
     98 H43         2.5210   -1.5490    3.7500 hc        1 MOL      0.077236
     99 H44         5.8500   -3.7830    3.6840 hc        1 MOL      0.041213
    100 H45         6.7010   -2.4540    2.9800 hc        1 MOL      0.041213
    101 H46         5.4020   -2.0550    4.0960 hc        1 MOL      0.041213
    102 N10         3.3400   -2.5250   -0.6910 n         1 MOL     -0.160065
    103 C32         4.0420   -2.7040   -1.9490 c3        1 MOL     -0.020041
    104 C33         5.4870   -2.1650   -1.9050 c         1 MOL      0.428526
    105 O16         6.3130   -2.6060   -2.7090 o         1 MOL     -0.546653
    106 C34         3.3270   -1.9060   -3.0650 c3        1 MOL     -0.071390
    107 C35         1.8750   -2.2060   -3.1830 c         1 MOL      0.759344
    108 O17         1.4940   -3.3350   -3.5630 o         1 MOL     -0.729327
    109 O18         1.0950   -1.2870   -2.9090 o         1 MOL     -0.729327
    110 H47         3.2040   -1.5580   -0.4600 hn        1 MOL      0.178653
    111 H48         4.0250   -3.7800   -2.1470 h1        1 MOL      0.086357
    112 H49         3.8010   -2.2090   -4.0010 hc        1 MOL      0.011217
    113 H50         3.4440   -0.8300   -2.8740 hc        1 MOL      0.011217
    114 N11         5.7660   -1.2790   -0.9740 n         1 MOL     -0.301402
    115 C36         7.0340   -0.5370   -0.9000 c3        1 MOL      0.010534
    116 C37         6.7630    0.9540   -0.4300 c         1 MOL      0.478828
    117 O19         7.3020    1.3750    0.6020 o         1 MOL     -0.520590
    118 C38         7.9920   -1.3460   -0.0790 c3        1 MOL     -0.503924
    119 C39         9.4110   -1.0150   -0.5220 ca        1 MOL      0.363739
    120 C40        10.1350    0.0450   -0.0060 ca        1 MOL     -0.279963
    121 C41         9.9920   -1.8490   -1.4170 ca        1 MOL     -0.279963
    122 C42        11.4540    0.3510   -0.4920 ca        1 MOL     -0.076860
    123 C43        11.2900   -1.5460   -2.0120 ca        1 MOL     -0.076860
    124 C44        12.0720   -0.4660   -1.4540 ca        1 MOL     -0.192984
    125 H51         5.0190   -0.8660   -0.4340 hn        1 MOL      0.303803
    126 H52         7.4310   -0.5160   -1.9190 h1        1 MOL      0.083895
    127 H53         7.8300   -2.4180   -0.1110 hc        1 MOL      0.161350
    128 H54         7.9520   -1.0700    0.9730 hc        1 MOL      0.161350
    129 H55         9.6710    0.7830    0.6330 ha        1 MOL      0.154360
    130 H56         9.3550   -2.6010   -1.8620 ha        1 MOL      0.154360
    131 H57        12.0860    1.1260   -0.0700 ha        1 MOL      0.098129
    132 H58        11.7160   -2.1960   -2.7630 ha        1 MOL      0.098129
    133 H59        13.0570   -0.3050   -1.8540 ha        1 MOL      0.116750
    134 N12         6.0460    1.8030   -1.1350 n         1 MOL     -0.082471
    135 C45         5.9990    3.2220   -0.8450 c3        1 MOL     -0.069012
    136 C46         5.4000    3.6620    0.4630 c         1 MOL      0.262462
    137 O20         5.7680    4.6980    1.0330 o         1 MOL     -0.486266
    138 C47         5.1750    3.7290   -2.0170 c3        1 MOL      0.000277
    139 C48         5.3870    2.8010   -3.2310 c3        1 MOL     -0.117803
    140 C49         5.3650    1.5120   -2.3840 c3        1 MOL     -0.120555
    141 H60         7.0140    3.6270   -0.8580 h1        1 MOL      0.106393
    142 H61         4.1030    3.8590   -1.8770 hc        1 MOL      0.044945
    143 H62         5.4800    4.7460   -2.2630 hc        1 MOL      0.044945
    144 H63         4.6590    2.8540   -4.0360 hc        1 MOL      0.051224
    145 H64         6.4040    2.9710   -3.5790 hc        1 MOL      0.051224
    146 H65         4.3340    1.2150   -2.2030 h1        1 MOL      0.109057
    147 H66         5.8020    0.7250   -2.9940 h1        1 MOL      0.109057
    148 N13         4.7070    2.7400    1.0710 n         1 MOL     -0.007087
    149 C50         4.0770    2.8480    2.3580 c3        1 MOL     -0.071693
    150 C51         5.1110    2.9770    3.4290 c         1 MOL      0.403007
    151 O21         5.1970    3.9340    4.2830 o         1 MOL     -0.521475
    152 C52         3.0850    1.7090    2.5900 c3        1 MOL      0.002568
    153 C53         2.0090    1.4470    1.5010 c3        1 MOL      0.011223
    154 C54         2.4050    0.4730    0.3770 c         1 MOL      0.689169
    155 O22         1.4450   -0.1750   -0.1530 o         1 MOL     -0.718271
    156 O23         3.6360    0.2470    0.0910 o         1 MOL     -0.718271
    157 H67         4.5100    1.8950    0.5620 hn        1 MOL      0.079971
    158 H68         3.5430    3.7890    2.4800 h1        1 MOL      0.079910
    159 H69         2.5790    1.9360    3.5190 hc        1 MOL     -0.001053
    160 H70         3.6640    0.7890    2.6720 hc        1 MOL     -0.001053
    161 H71         1.8690    2.4170    1.0260 hc        1 MOL      0.000093
    162 H72         0.9930    1.1480    1.7490 hc        1 MOL      0.000093
    163 N14         6.0910    2.0420    3.3860 n         1 MOL     -0.124086
    164 C55         7.1060    1.9480    4.4310 c3        1 MOL     -0.395292
    165 H73         6.6290    2.0250    5.4070 h1        1 MOL      0.133807
    166 H74         7.6210    0.9900    4.3530 h1        1 MOL      0.133807
    167 H75         7.8250    2.7590    4.3130 h1        1 MOL      0.133807
    168 H76         6.1310    1.3750    2.6240 hn        1 MOL      0.235561
    169 Ca1        -0.7590   -0.8130   -1.2550 Ca        1 MOL      1.779775
    170 O24        -0.3410    1.7570   -2.1650 oh        1 MOL     -0.887790
    171 H77         0.4150    2.3410   -2.2830 ho        1 MOL      0.413125
    172 H78        -1.0800    2.2500   -2.5080 ho        1 MOL      0.413125
    173 O25        -2.8300   -2.3280   -0.4940 oh        1 MOL     -0.887790
    174 H79        -3.6240   -2.2670   -1.0110 ho        1 MOL      0.413125
    175 H80        -2.8390   -3.2110   -0.1300 ho        1 MOL      0.413125
    176 O26        -0.7410   -3.6520   -1.9880 oh        1 MOL     -0.887790
    177 H81        -1.0030   -4.5610   -1.8730 ho        1 MOL      0.413125
    178 H82         0.0450   -3.6940   -2.5380 ho        1 MOL      0.413125
    179 O27        -2.7840    0.7670   -0.1420 oh        1 MOL     -0.887790
    180 H83        -3.2210    1.6180   -0.0760 ho        1 MOL      0.413125
    181 H84        -3.4860    0.1380    0.0160 ho        1 MOL      0.413125
@<TRIPOS>BOND
     1    1    2 1   
     2    1    4 1   
     3    1    5 1   
     4    1    6 1   
     5    2    3 2   
     6    2    7 1   
     7    7    8 1   
     8    7   15 1   
     9    8    9 1   
    10    8   11 1   
    11    8   16 1   
    12    9   10 2   
    13    9   19 1   
    14   11   12 1   
    15   11   17 1   
    16   11   18 1   
    17   12   13 1   
    18   12   14 1   
    19   19   20 1   
    20   19   24 1   
    21   20   21 1   
    22   20   23 1   
    23   20   25 1   
    24   21   22 2   
    25   21   29 1   
    26   23   26 1   
    27   23   27 1   
    28   23   28 1   
    29   29   30 1   
    30   29   37 1   
    31   30   31 1   
    32   30   33 1   
    33   30   38 1   
    34   31   32 2   
    35   31   41 1   
    36   33   34 1   
    37   33   39 1   
    38   33   40 1   
    39   34   35 1   
    40   34   36 1   
    41   41   42 1   
    42   41   45 1   
    43   42   43 1   
    44   42   46 1   
    45   42   47 1   
    46   43   44 2   
    47   43   48 1   
    48   48   49 1   
    49   48   56 1   
    50   49   50 1   
    51   49   52 1   
    52   49   57 1   
    53   50   51 2   
    54   50   62 1   
    55   52   53 1   
    56   52   58 1   
    57   52   59 1   
    58   53   54 1   
    59   53   55 2   
    60   54   60 1   
    61   54   61 1   
    62   62   63 1   
    63   62   66 1   
    64   63   64 1   
    65   63   67 1   
    66   63   68 1   
    67   64   65 2   
    68   64   69 1   
    69   69   70 1   
    70   69   76 1   
    71   70   71 1   
    72   70   73 1   
    73   70   77 1   
    74   71   72 2   
    75   71   83 1   
    76   73   74 1   
    77   73   75 1   
    78   73   78 1   
    79   74   80 1   
    80   74   81 1   
    81   74   82 1   
    82   75   79 1   
    83   83   84 1   
    84   83   91 1   
    85   84   85 1   
    86   84   87 1   
    87   84   92 1   
    88   85   86 2   
    89   85  102 1   
    90   87   88 1   
    91   87   89 1   
    92   87   93 1   
    93   88   90 1   
    94   88   94 1   
    95   88   95 1   
    96   89   96 1   
    97   89   97 1   
    98   89   98 1   
    99   90   99 1   
   100   90  100 1   
   101   90  101 1   
   102  102  103 1   
   103  102  110 1   
   104  103  104 1   
   105  103  106 1   
   106  103  111 1   
   107  104  105 2   
   108  104  114 1   
   109  106  107 1   
   110  106  112 1   
   111  106  113 1   
   112  107  108 1   
   113  107  109 1   
   114  114  115 1   
   115  114  125 1   
   116  115  116 1   
   117  115  118 1   
   118  115  126 1   
   119  116  117 2   
   120  116  134 1   
   121  118  119 1   
   122  118  127 1   
   123  118  128 1   
   124  119  120 ar  
   125  119  121 ar  
   126  120  122 ar  
   127  120  129 1   
   128  121  123 ar  
   129  121  130 1   
   130  122  124 ar  
   131  122  131 1   
   132  123  124 ar  
   133  123  132 1   
   134  124  133 1   
   135  134  135 1   
   136  134  140 1   
   137  135  136 1   
   138  135  138 1   
   139  135  141 1   
   140  136  137 2   
   141  136  148 1   
   142  138  139 1   
   143  138  142 1   
   144  138  143 1   
   145  139  140 1   
   146  139  144 1   
   147  139  145 1   
   148  140  146 1   
   149  140  147 1   
   150  148  149 1   
   151  148  157 1   
   152  149  150 1   
   153  149  152 1   
   154  149  158 1   
   155  150  151 2   
   156  150  163 1   
   157  152  153 1   
   158  152  159 1   
   159  152  160 1   
   160  153  154 1   
   161  153  161 1   
   162  153  162 1   
   163  154  155 1   
   164  154  156 1   
   165  163  164 1   
   166  163  168 1   
   167  164  165 1   
   168  164  166 1   
   169  164  167 1   
   170  170  171 1   
   171  170  172 1   
   172  173  174 1   
   173  173  175 1   
   174  176  177 1   
   175  176  178 1   
   176  179  180 1   
   177  179  181 1   
@<TRIPOS>SUBSTRUCTURE
     1 MOL         1 TEMP              0 ****  ****    0 ROOT
