@<TRIPOS>MOLECULE
MOL
  178   175     1     0     0
SMALL
resp


@<TRIPOS>ATOM
      1 C1          3.8620   -2.5570    3.0080 c3        1 MOL     -0.368099
      2 C2          5.2470   -1.9170    2.6070 c         1 MOL      0.665620
      3 O1          5.3780   -0.9690    1.8430 o         1 MOL     -0.579694
      4 H1          3.9710   -3.6390    3.0870 hc        1 MOL      0.100128
      5 H2          3.5390   -2.1550    3.9690 hc        1 MOL      0.100128
      6 H3          3.1170   -2.3220    2.2480 hc        1 MOL      0.100128
      7 N1          6.2520   -2.5420    3.1560 n         1 MOL     -0.541629
      8 C3          7.6390   -2.2060    2.8900 c3        1 MOL      0.220275
      9 C4          7.9250   -2.2680    1.3300 c         1 MOL      0.565489
     10 O2          7.6240   -3.2550    0.6350 o         1 MOL     -0.577255
     11 C5          8.4770   -3.1300    3.7520 c3        1 MOL     -0.307979
     12 C6         10.0030   -2.8830    3.4730 c         1 MOL      0.748899
     13 O3         10.7450   -3.4590    4.2440 o         1 MOL     -0.725569
     14 O4         10.4040   -2.1820    2.5160 o         1 MOL     -0.725569
     15 H4          6.0810   -3.3430    3.7470 hn        1 MOL      0.287664
     16 H5          7.7700   -1.1610    3.1680 h1        1 MOL     -0.006797
     17 H6          8.1670   -4.1070    3.3700 hc        1 MOL      0.056089
     18 H7          8.1790   -2.9310    4.7780 hc        1 MOL      0.056089
     19 N2          8.4460   -1.2150    0.7190 n         1 MOL     -0.338708
     20 C7          8.7030   -1.0440   -0.7140 c3        1 MOL      0.182319
     21 C8          7.5060   -1.1300   -1.6160 c         1 MOL      0.606544
     22 O5          7.7370   -1.3010   -2.7940 o         1 MOL     -0.583367
     23 C9          9.4610    0.2510   -0.8910 c3        1 MOL     -0.179319
     24 H8          8.7110   -0.3670    1.2030 hn        1 MOL      0.203800
     25 H9          9.4410   -1.7630   -1.0740 h1        1 MOL      0.042197
     26 H10         9.6410    0.3420   -1.9630 hc        1 MOL      0.039097
     27 H11         8.8890    1.1230   -0.5780 hc        1 MOL      0.039097
     28 H12        10.4330    0.2820   -0.3970 hc        1 MOL      0.039097
     29 N3          6.2940   -0.9550   -1.0030 n         1 MOL     -0.645378
     30 C10         4.8780   -1.3270   -1.4300 c3        1 MOL      0.043433
     31 C11         4.5560   -1.0330   -2.8850 c         1 MOL      0.504440
     32 O6          3.6270   -1.6010   -3.4520 o         1 MOL     -0.501536
     33 C12         4.6830   -2.8440   -1.1720 c3        1 MOL     -0.112879
     34 C13         3.2040   -3.3470   -1.2090 c         1 MOL      0.756319
     35 O7          2.8330   -4.3410   -1.9030 o         1 MOL     -0.785370
     36 O8          2.3780   -2.7880   -0.4700 o         1 MOL     -0.785370
     37 H13         6.3590   -0.8280    0.0020 hn        1 MOL      0.271438
     38 H14         4.2410   -0.7100   -0.7920 h1        1 MOL      0.128668
     39 H15         5.1200   -3.1070   -0.2030 hc        1 MOL      0.057456
     40 H16         5.1660   -3.3890   -1.9900 hc        1 MOL      0.057456
     41 N4          5.1960   -0.0210   -3.5080 n         1 MOL     -0.102277
     42 C14         4.9180    0.4900   -4.8470 c3        1 MOL     -0.502724
     43 C15         3.7510    1.5290   -4.9360 c         1 MOL      0.672207
     44 O9          3.1590    1.7450   -5.9750 o         1 MOL     -0.555089
     45 H17         6.0290    0.3760   -3.1250 hn        1 MOL      0.219176
     46 H18         4.6380   -0.2970   -5.5460 h1        1 MOL      0.177741
     47 H19         5.8890    0.8550   -5.1800 h1        1 MOL      0.177741
     48 N5          3.4070    2.1870   -3.8040 n         1 MOL     -0.433453
     49 C16         2.3840    3.1890   -3.6420 c3        1 MOL     -0.062315
     50 C17         2.8800    4.2200   -2.5730 c         1 MOL      0.537557
     51 O10         3.6060    3.8880   -1.6590 o         1 MOL     -0.488099
     52 C18         1.1130    2.4610   -3.0560 c3        1 MOL     -0.020944
     53 C19        -0.1220    3.2800   -3.0970 c         1 MOL      0.547077
     54 N6         -0.8800    3.3690   -1.9920 n         1 MOL     -0.743240
     55 O11        -0.5830    3.6380   -4.1540 o         1 MOL     -0.578507
     56 H20         3.6700    1.6610   -2.9880 hn        1 MOL      0.166643
     57 H21         2.2230    3.5630   -4.6520 h1        1 MOL      0.095124
     58 H22         1.2090    1.9590   -2.0950 hc        1 MOL      0.105693
     59 H23         0.7960    1.6170   -3.6720 hc        1 MOL      0.105693
     60 H24        -0.4710    3.2180   -1.0800 hn        1 MOL      0.341834
     61 H25        -1.8180    3.7040   -2.1890 hn        1 MOL      0.341834
     62 N7          2.3790    5.4610   -2.6820 n         1 MOL     -0.432505
     63 C20         2.5100    6.5260   -1.6700 c3        1 MOL     -0.009211
     64 C21         1.3490    6.7830   -0.7930 c         1 MOL      0.674803
     65 O12         0.1740    6.6870   -1.2240 o         1 MOL     -0.579174
     66 H26         1.9550    5.7830   -3.5360 hn        1 MOL      0.293185
     67 H27         2.7360    7.4550   -2.1920 h1        1 MOL      0.050420
     68 H28         3.3670    6.3300   -1.0380 h1        1 MOL      0.050420
     69 N8          1.5040    7.1020    0.4700 n         1 MOL     -0.599061
     70 C22         0.3280    7.4240    1.3070 c3        1 MOL     -0.047886
     71 C23        -0.5800    6.3340    1.8630 c         1 MOL      0.570345
     72 O13        -1.4870    6.6390    2.6240 o         1 MOL     -0.567821
     73 C24         0.8370    8.2740    2.5590 c3        1 MOL      0.378425
     74 C25         1.6410    7.4300    3.5580 c3        1 MOL     -0.203110
     75 O14         1.5060    9.4360    2.1240 oh        1 MOL     -0.626223
     76 H29         2.4050    7.1140    0.9210 hn        1 MOL      0.304552
     77 H30        -0.4200    8.0850    0.8730 h1        1 MOL      0.125327
     78 H31        -0.0830    8.5970    3.0390 h1        1 MOL      0.031258
     79 H32         2.4240    9.2390    1.9480 ho        1 MOL      0.380350
     80 H33         2.4700    7.9780    4.0030 hc        1 MOL      0.045896
     81 H34         1.0310    7.1010    4.3940 hc        1 MOL      0.045896
     82 H35         2.0860    6.5080    3.1660 hc        1 MOL      0.045896
     83 N9         -0.3170    5.0300    1.5800 n         1 MOL     -0.398958
     84 C26        -1.1500    3.9070    2.0940 c3        1 MOL     -0.178514
     85 C27        -1.0310    2.7050    1.2070 c         1 MOL      0.863947
     86 O15        -0.0610    2.5770    0.4840 o         1 MOL     -0.548418
     87 C28        -0.6450    3.4160    3.4480 c3        1 MOL      0.066311
     88 C29         0.8890    3.0660    3.6190 c3        1 MOL      0.217435
     89 C30        -1.2030    4.3870    4.5240 c3        1 MOL     -0.156336
     90 C31         1.2380    2.1330    4.7420 c3        1 MOL     -0.467568
     91 H36         0.5390    4.8160    1.0920 hn        1 MOL      0.237116
     92 H37        -2.1880    4.2280    2.0390 h1        1 MOL      0.134746
     93 H38        -1.1660    2.4770    3.6400 hc        1 MOL      0.005588
     94 H39         1.5360    3.9470    3.6600 hc        1 MOL     -0.004740
     95 H40         1.1210    2.5370    2.6980 hc        1 MOL     -0.004740
     96 H41        -2.2860    4.5120    4.5590 hc        1 MOL      0.035256
     97 H42        -0.9550    4.0230    5.5290 hc        1 MOL      0.035256
     98 H43        -0.6960    5.3540    4.4890 hc        1 MOL      0.035256
     99 H44         0.8390    1.1610    4.4520 hc        1 MOL      0.116565
    100 H45         2.3240    2.0440    4.8390 hc        1 MOL      0.116565
    101 H46         0.7150    2.5500    5.5980 hc        1 MOL      0.116565
    102 N10        -2.1000    1.8700    1.1400 n         1 MOL     -1.011783
    103 C32        -2.1790    0.7500    0.1840 c3        1 MOL      0.630453
    104 C33        -3.5180    0.4980   -0.5720 c         1 MOL      0.235220
    105 O16        -3.5400   -0.2210   -1.6170 o         1 MOL     -0.436404
    106 C34        -1.7800   -0.5150    0.9610 c3        1 MOL     -0.239852
    107 C35        -1.1870   -1.6890    0.1550 c         1 MOL      0.764394
    108 O17        -0.8950   -1.5820   -1.0530 o         1 MOL     -0.753297
    109 O18        -0.9140   -2.7590    0.7630 o         1 MOL     -0.753297
    110 H47        -2.8600    2.1530    1.7480 hn        1 MOL      0.390520
    111 H48        -1.4390    0.8340   -0.6240 h1        1 MOL     -0.042344
    112 H49        -2.7510   -0.9260    1.1960 hc        1 MOL      0.059035
    113 H50        -1.1290   -0.3450    1.8240 hc        1 MOL      0.059035
    114 N11        -4.6280    0.8500    0.0850 n         1 MOL     -0.303081
    115 C36        -6.0050    0.7060   -0.2610 c3        1 MOL      0.364655
    116 C37        -6.6090   -0.5570    0.3910 c         1 MOL      0.204955
    117 O19        -6.5480   -0.7040    1.6160 o         1 MOL     -0.450973
    118 C38        -6.7170    1.9890    0.0930 c3        1 MOL     -0.194088
    119 C39        -8.0610    2.1030   -0.5600 ca        1 MOL      0.113225
    120 C40        -8.2080    2.5790   -1.8720 ca        1 MOL     -0.189112
    121 C41        -9.1750    1.5810    0.0730 ca        1 MOL     -0.189112
    122 C42        -9.4290    2.6460   -2.5240 ca        1 MOL     -0.081037
    123 C43       -10.4150    1.5230   -0.5530 ca        1 MOL     -0.081037
    124 C44       -10.5860    2.1440   -1.8230 ca        1 MOL     -0.153820
    125 H51        -4.4470    1.4040    0.9070 hn        1 MOL      0.181284
    126 H52        -6.0800    0.5550   -1.3360 h1        1 MOL     -0.030428
    127 H53        -6.0580    2.8070   -0.2110 hc        1 MOL      0.062438
    128 H54        -6.8490    1.9750    1.1750 hc        1 MOL      0.062438
    129 H55        -7.3100    2.9890   -2.3160 ha        1 MOL      0.130823
    130 H56        -9.0250    1.1270    1.0460 ha        1 MOL      0.130823
    131 H57        -9.5400    3.1230   -3.4900 ha        1 MOL      0.110145
    132 H58       -11.2920    1.1320   -0.0450 ha        1 MOL      0.110145
    133 H59       -11.5930    2.2420   -2.1910 ha        1 MOL      0.112320
    134 N12        -7.2000   -1.4790   -0.4250 n         1 MOL     -0.080631
    135 C45        -8.0160   -2.4920    0.2710 c3        1 MOL      0.229440
    136 C46        -7.2650   -3.4280    1.1920 c         1 MOL      0.106282
    137 O20        -7.8410   -3.8860    2.1880 o         1 MOL     -0.489417
    138 C47        -8.7720   -3.2580   -0.7980 c3        1 MOL      0.006755
    139 C48        -8.8740   -2.2640   -1.9750 c3        1 MOL     -0.128428
    140 C49        -7.6090   -1.3860   -1.8190 c3        1 MOL     -0.115781
    141 H60        -8.7170   -1.9540    0.9020 h1        1 MOL      0.028072
    142 H61        -8.1970   -4.1010   -1.1870 hc        1 MOL      0.029939
    143 H62        -9.7640   -3.5790   -0.4960 hc        1 MOL      0.029939
    144 H63        -8.7910   -2.8520   -2.8850 hc        1 MOL      0.051449
    145 H64        -9.7850   -1.6660   -1.8670 hc        1 MOL      0.051449
    146 H65        -6.7590   -1.7220   -2.4190 h1        1 MOL      0.092809
    147 H66        -7.8620   -0.3600   -2.0550 h1        1 MOL      0.092809
    148 N13        -5.9210   -3.5720    1.0110 n         1 MOL      0.014290
    149 C50        -5.0230   -4.3830    1.8540 c3        1 MOL     -0.112083
    150 C51        -4.6970   -3.7820    3.2460 c         1 MOL      0.437819
    151 O21        -4.0740   -4.4480    4.0840 o         1 MOL     -0.553189
    152 C52        -3.7860   -4.7900    1.1230 c3        1 MOL     -0.095197
    153 C53        -4.0540   -5.6950   -0.0300 c3        1 MOL     -0.069022
    154 C54        -2.8250   -5.7340   -1.0430 c         1 MOL      0.655702
    155 O22        -2.4470   -6.8240   -1.4530 o         1 MOL     -0.720730
    156 O23        -2.2680   -4.6280   -1.3750 o         1 MOL     -0.720730
    157 H67        -5.5000   -3.1940    0.1760 hn        1 MOL      0.165560
    158 H68        -5.5160   -5.3220    2.1250 h1        1 MOL      0.090765
    159 H69        -3.1190   -5.3340    1.7930 hc        1 MOL      0.066037
    160 H70        -3.2410   -3.8660    0.8870 hc        1 MOL      0.066037
    161 H71        -4.9800   -5.3890   -0.5190 hc        1 MOL      0.000781
    162 H72        -4.2260   -6.7100    0.3320 hc        1 MOL      0.000781
    163 N14        -5.0020   -2.5360    3.4780 n         1 MOL     -0.146012
    164 C55        -4.4910   -1.8010    4.6660 c3        1 MOL     -0.297041
    165 H73        -4.4210   -0.7390    4.4330 h1        1 MOL      0.112375
    166 H74        -5.1730   -1.9450    5.5040 h1        1 MOL      0.112375
    167 H75        -3.5040   -2.1790    4.9320 h1        1 MOL      0.112375
    168 H76        -5.3840   -2.0090    2.6960 hn        1 MOL      0.178597
    169 Ca1         0.2000   -4.0150   -1.2980 Ca        1 MOL      1.726650
    170 O24         0.5900   -6.4740   -2.3000 oh        1 MOL     -0.845507
    171 H77         0.8250   -6.8500   -1.4550 ho        1 MOL      0.421886
    172 H78         0.3460   -7.2280   -2.8300 ho        1 MOL      0.421886
    173 O25         0.3940   -3.5290   -3.7290 oh        1 MOL     -0.845507
    174 H79        -0.0460   -3.3010   -4.5450 ho        1 MOL      0.421886
    175 H80         1.2000   -3.9770   -4.0070 ho        1 MOL      0.421886
    176 O26         0.6370   -5.7720    0.7200 oh        1 MOL     -0.845507
    177 H81         0.0060   -5.6970    1.4440 ho        1 MOL      0.421886
    178 H82         1.3290   -6.3230    1.0720 ho        1 MOL      0.421886
@<TRIPOS>BOND
     1    1    2 1   
     2    1    4 1   
     3    1    5 1   
     4    1    6 1   
     5    2    3 2   
     6    2    7 1   
     7    7    8 1   
     8    7   15 1   
     9    8    9 1   
    10    8   11 1   
    11    8   16 1   
    12    9   10 2   
    13    9   19 1   
    14   11   12 1   
    15   11   17 1   
    16   11   18 1   
    17   12   13 1   
    18   12   14 1   
    19   19   20 1   
    20   19   24 1   
    21   20   21 1   
    22   20   23 1   
    23   20   25 1   
    24   21   22 2   
    25   21   29 1   
    26   23   26 1   
    27   23   27 1   
    28   23   28 1   
    29   29   30 1   
    30   29   37 1   
    31   30   31 1   
    32   30   33 1   
    33   30   38 1   
    34   31   32 2   
    35   31   41 1   
    36   33   34 1   
    37   33   39 1   
    38   33   40 1   
    39   34   35 1   
    40   34   36 1   
    41   41   42 1   
    42   41   45 1   
    43   42   43 1   
    44   42   46 1   
    45   42   47 1   
    46   43   44 2   
    47   43   48 1   
    48   48   49 1   
    49   48   56 1   
    50   49   50 1   
    51   49   52 1   
    52   49   57 1   
    53   50   51 2   
    54   50   62 1   
    55   52   53 1   
    56   52   58 1   
    57   52   59 1   
    58   53   54 1   
    59   53   55 2   
    60   54   60 1   
    61   54   61 1   
    62   62   63 1   
    63   62   66 1   
    64   63   64 1   
    65   63   67 1   
    66   63   68 1   
    67   64   65 2   
    68   64   69 1   
    69   69   70 1   
    70   69   76 1   
    71   70   71 1   
    72   70   73 1   
    73   70   77 1   
    74   71   72 2   
    75   71   83 1   
    76   73   74 1   
    77   73   75 1   
    78   73   78 1   
    79   74   80 1   
    80   74   81 1   
    81   74   82 1   
    82   75   79 1   
    83   83   84 1   
    84   83   91 1   
    85   84   85 1   
    86   84   87 1   
    87   84   92 1   
    88   85   86 2   
    89   85  102 1   
    90   87   88 1   
    91   87   89 1   
    92   87   93 1   
    93   88   90 1   
    94   88   94 1   
    95   88   95 1   
    96   89   96 1   
    97   89   97 1   
    98   89   98 1   
    99   90   99 1   
   100   90  100 1   
   101   90  101 1   
   102  102  103 1   
   103  102  110 1   
   104  103  104 1   
   105  103  106 1   
   106  103  111 1   
   107  104  105 2   
   108  104  114 1   
   109  106  107 1   
   110  106  112 1   
   111  106  113 1   
   112  107  108 1   
   113  107  109 1   
   114  114  115 1   
   115  114  125 1   
   116  115  116 1   
   117  115  118 1   
   118  115  126 1   
   119  116  117 2   
   120  116  134 1   
   121  118  119 1   
   122  118  127 1   
   123  118  128 1   
   124  119  120 ar  
   125  119  121 ar  
   126  120  122 ar  
   127  120  129 1   
   128  121  123 ar  
   129  121  130 1   
   130  122  124 ar  
   131  122  131 1   
   132  123  124 ar  
   133  123  132 1   
   134  124  133 1   
   135  134  135 1   
   136  134  140 1   
   137  135  136 1   
   138  135  138 1   
   139  135  141 1   
   140  136  137 2   
   141  136  148 1   
   142  138  139 1   
   143  138  142 1   
   144  138  143 1   
   145  139  140 1   
   146  139  144 1   
   147  139  145 1   
   148  140  146 1   
   149  140  147 1   
   150  148  149 1   
   151  148  157 1   
   152  149  150 1   
   153  149  152 1   
   154  149  158 1   
   155  150  151 2   
   156  150  163 1   
   157  152  153 1   
   158  152  159 1   
   159  152  160 1   
   160  153  154 1   
   161  153  161 1   
   162  153  162 1   
   163  154  155 1   
   164  154  156 1   
   165  163  164 1   
   166  163  168 1   
   167  164  165 1   
   168  164  166 1   
   169  164  167 1   
   170  170  171 1   
   171  170  172 1   
   172  173  174 1   
   173  173  175 1   
   174  176  177 1   
   175  176  178 1   
@<TRIPOS>SUBSTRUCTURE
     1 MOL         1 TEMP              0 ****  ****    0 ROOT
