@<TRIPOS>MOLECULE
MOL
  192   187     1     0     0
SMALL
resp


@<TRIPOS>ATOM
      1 C1         -4.0310    2.5570   -2.6450 c3        1 MOL     -0.161223
      2 C2         -3.2460    2.9550   -1.4020 c         1 MOL      0.725959
      3 O1         -2.4610    2.1690   -0.8240 o         1 MOL     -0.461501
      4 H1         -3.8020    3.2480   -3.4560 hc        1 MOL      0.032612
      5 H2         -3.7550    1.5450   -2.9410 hc        1 MOL      0.032612
      6 H3         -5.0990    2.5940   -2.4280 hc        1 MOL      0.032612
      7 N1         -3.5030    4.1990   -0.9060 n         1 MOL     -0.912190
      8 C3         -2.7860    4.9720    0.1790 c3        1 MOL      0.089528
      9 C4         -1.2580    5.1640   -0.0420 c         1 MOL      0.811249
     10 O2         -0.5560    5.0630    0.9560 o         1 MOL     -0.532814
     11 C5         -3.1930    4.3540    1.5290 c3        1 MOL     -0.912025
     12 C6         -4.6860    4.0540    1.7070 c         1 MOL      1.199946
     13 O3         -5.2190    2.9290    1.6770 o         1 MOL     -0.809013
     14 O4         -5.4500    5.0440    1.8740 o         1 MOL     -0.809013
     15 H4         -4.1640    4.7150   -1.4610 hn        1 MOL      0.381845
     16 H5         -3.2180    5.9790    0.1810 h1        1 MOL      0.097341
     17 H6         -2.9370    5.1130    2.2740 hc        1 MOL      0.239786
     18 H7         -2.6160    3.4610    1.7650 hc        1 MOL      0.239786
     19 N2         -0.7410    5.2520   -1.2660 n         1 MOL     -0.729186
     20 C7          0.6730    5.4760   -1.5680 c3        1 MOL     -0.024553
     21 C8          1.2150    6.7940   -1.0610 c         1 MOL      0.457909
     22 O5          0.6000    7.8390   -1.0070 o         1 MOL     -0.585197
     23 C9          1.0240    5.1270   -3.0910 c3        1 MOL      0.209761
     24 C10         0.0840    5.7140   -4.1140 c3        1 MOL      0.017296
     25 C11         1.0090    3.5610   -3.2210 c3        1 MOL     -0.406538
     26 C12         0.1450    7.2590   -4.2000 c3        1 MOL     -0.120015
     27 H8         -1.4140    5.1620   -2.0150 hn        1 MOL      0.405528
     28 H9          1.1690    4.6620   -1.0330 h1        1 MOL      0.168143
     29 H10         2.0320    5.4540   -3.3590 hc        1 MOL      0.069543
     30 H11        -0.9290    5.3530   -3.9750 hc        1 MOL     -0.016480
     31 H12         0.4830    5.2820   -5.0340 hc        1 MOL     -0.016480
     32 H13        -0.0060    3.1880   -3.1040 hc        1 MOL      0.087271
     33 H14         1.3030    3.2750   -4.2290 hc        1 MOL      0.087271
     34 H15         1.6040    3.0930   -2.4350 hc        1 MOL      0.087271
     35 H16        -0.2250    7.5680   -5.1730 hc        1 MOL      0.024991
     36 H17        -0.5020    7.7130   -3.4410 hc        1 MOL      0.024991
     37 H18         1.1860    7.5640   -4.1020 hc        1 MOL      0.024991
     38 N3          2.4730    6.9190   -0.7050 n         1 MOL     -0.295249
     39 C13         3.5160    5.9210   -0.6560 c3        1 MOL     -0.278414
     40 C14         4.2150    5.9440    0.6900 c         1 MOL      0.519364
     41 O6          4.7630    7.0340    1.0820 o         1 MOL     -0.534381
     42 C15         4.5770    6.3090   -1.7890 c3        1 MOL     -0.116390
     43 C16         5.7520    5.3450   -1.7200 c         1 MOL      0.871601
     44 O7          6.6410    5.5500   -2.5300 o         1 MOL     -0.760264
     45 O8          5.7110    4.3350   -1.0110 o         1 MOL     -0.760264
     46 H19         2.6990    7.8120   -0.2790 hn        1 MOL      0.295138
     47 H20         3.2760    4.8800   -0.8650 h1        1 MOL      0.116995
     48 H21         4.9740    7.3190   -1.6850 hc        1 MOL      0.016914
     49 H22         4.1120    6.1850   -2.7680 hc        1 MOL      0.016914
     50 N4          4.3460    4.7800    1.3760 n         1 MOL     -0.359476
     51 C17         5.1800    4.5850    2.5850 c3        1 MOL      0.080728
     52 C18         6.1830    3.4380    2.5960 c         1 MOL      0.556953
     53 O9          7.3870    3.5910    2.3610 o         1 MOL     -0.541160
     54 H23         3.9450    3.9840    0.9020 hn        1 MOL      0.260485
     55 H24         4.5030    4.3230    3.4100 h1        1 MOL      0.012406
     56 H25         5.7490    5.4840    2.8070 h1        1 MOL      0.012406
     57 N5          5.6650    2.2340    2.8530 n         1 MOL     -0.492430
     58 C19         6.4040    0.9800    3.2900 c3        1 MOL      0.023290
     59 C20         7.2820    0.4160    2.1310 c         1 MOL      0.445460
     60 O10         8.2560   -0.1930    2.4420 o         1 MOL     -0.541007
     61 C21         5.5010   -0.1080    3.7290 c3        1 MOL     -0.111059
     62 C22         4.3510   -0.3540    2.7820 c         1 MOL      0.784769
     63 O11         3.2180    0.1330    3.0210 o         1 MOL     -0.720665
     64 O12         4.5720   -0.9880    1.7770 o         1 MOL     -0.720665
     65 H26         4.6910    2.2560    3.1080 hn        1 MOL      0.276697
     66 H27         7.1470    1.2400    4.0580 h1        1 MOL      0.069736
     67 H28         5.0420    0.1330    4.6790 hc        1 MOL     -0.004120
     68 H29         6.0720   -1.0190    3.9140 hc        1 MOL     -0.004120
     69 N6          6.9660    0.6740    0.8360 n         1 MOL     -0.050180
     70 C23         7.7900    0.1700   -0.2050 c3        1 MOL     -0.421501
     71 C24         7.6650   -1.3360   -0.4880 c         1 MOL      0.649213
     72 O13         8.2610   -1.8780   -1.3770 o         1 MOL     -0.613535
     73 H30         6.1070    1.1960    0.6550 hn        1 MOL      0.259433
     74 H31         8.8260    0.3580    0.0910 h1        1 MOL      0.149277
     75 H32         7.6190    0.7380   -1.1220 h1        1 MOL      0.149277
     76 N7          6.6780   -1.9340    0.2310 n         1 MOL     -0.065953
     77 C25         6.4050   -3.4250    0.3260 c3        1 MOL     -0.029306
     78 C26         6.0650   -4.1270   -0.9900 c         1 MOL      0.398368
     79 O14         6.1540   -5.3440   -1.1310 o         1 MOL     -0.507221
     80 C27         7.3240   -4.1510    1.3660 c3        1 MOL      0.150968
     81 C28         7.3890   -3.5680    2.7990 c3        1 MOL     -0.030535
     82 C29         7.7410   -4.5560    3.8920 c         1 MOL      0.633769
     83 N8          8.2680   -4.0470    5.0060 n         1 MOL     -0.845746
     84 O15         7.6220   -5.7050    3.6500 o         1 MOL     -0.538724
     85 H33         6.2870   -1.3570    0.9480 hn        1 MOL     -0.044603
     86 H34         5.4530   -3.4960    0.8430 h1        1 MOL      0.135732
     87 H35         8.3410   -4.0270    1.0010 hc        1 MOL     -0.047545
     88 H36         7.0480   -5.1990    1.4930 hc        1 MOL     -0.047545
     89 H37         6.4530   -3.0890    3.0700 hc        1 MOL      0.003908
     90 H38         8.1030   -2.7370    2.8410 hc        1 MOL      0.003908
     91 H39         8.2580   -3.0400    4.9180 hn        1 MOL      0.370881
     92 H40         8.6170   -4.5900    5.7900 hn        1 MOL      0.370881
     93 N9          5.5090   -3.3770   -2.0010 n         1 MOL     -0.082789
     94 C30         5.1260   -3.7300   -3.3710 c3        1 MOL     -0.443657
     95 C31         3.6240   -3.5580   -3.4780 c         1 MOL      0.795357
     96 O16         2.9720   -4.2340   -4.2730 o         1 MOL     -0.625464
     97 C32         5.8960   -2.9290   -4.4900 c3        1 MOL      0.355864
     98 C33         5.8460   -1.4160   -4.1950 c3        1 MOL     -0.242480
     99 C34         7.2970   -3.4430   -4.6830 c3        1 MOL     -0.242480
    100 H41         5.3830   -2.4050   -1.7630 hn        1 MOL      0.098196
    101 H42         5.4170   -4.7840   -3.3620 h1        1 MOL      0.169689
    102 H43         5.3670   -2.9690   -5.4470 hc        1 MOL     -0.050118
    103 H44         6.2250   -0.9100   -5.0830 hc        1 MOL      0.052746
    104 H45         4.8470   -1.0460   -4.0270 hc        1 MOL      0.052746
    105 H46         6.4680   -1.1850   -3.3170 hc        1 MOL      0.052746
    106 H47         7.3660   -4.4530   -5.0630 hc        1 MOL      0.052746
    107 H48         7.7900   -2.7560   -5.3760 hc        1 MOL      0.052746
    108 H49         7.8260   -3.3180   -3.7380 hc        1 MOL      0.052746
    109 N10         3.0140   -2.7450   -2.6860 n         1 MOL     -0.686857
    110 C35         1.5790   -2.4880   -2.6970 c3        1 MOL      0.404369
    111 C36         0.8900   -3.0310   -1.4170 c         1 MOL      0.550327
    112 O17         1.5700   -3.4220   -0.4280 o         1 MOL     -0.546843
    113 C37         1.3630   -0.9630   -2.8490 c3        1 MOL     -0.392420
    114 C38        -0.0360   -0.5980   -2.8130 c         1 MOL      0.624065
    115 N11        -0.4280    0.3290   -1.9540 n         1 MOL     -0.591230
    116 O18        -0.8770   -1.1580   -3.4670 o         1 MOL     -0.577446
    117 H50         3.5640   -2.1260   -2.1120 hn        1 MOL      0.320872
    118 H51         1.1630   -2.9950   -3.5710 h1        1 MOL      0.018528
    119 H52         1.9060   -0.6100   -3.7290 hc        1 MOL      0.126253
    120 H53         1.8410   -0.5210   -1.9810 hc        1 MOL      0.126253
    121 H54         0.2080    0.5350   -1.1930 hn        1 MOL      0.301108
    122 H55        -1.4000    0.6130   -1.9420 hn        1 MOL      0.301108
    123 N12        -0.4290   -2.9610   -1.3230 n         1 MOL     -0.652131
    124 C39        -1.3300   -3.3750   -0.1990 c3        1 MOL      0.268763
    125 C40        -2.7760   -3.7600   -0.7470 c         1 MOL      0.561644
    126 O19        -3.1170   -3.2060   -1.7890 o         1 MOL     -0.530750
    127 C41        -1.3330   -2.2190    0.8120 c3        1 MOL      0.101955
    128 C42        -1.4580   -2.6630    2.3080 ca        1 MOL     -0.064789
    129 C43        -2.7070   -2.6200    2.9340 ca        1 MOL     -0.126279
    130 C44        -0.3380   -3.0530    3.0830 ca        1 MOL     -0.126279
    131 C45        -2.8970   -3.1310    4.2160 ca        1 MOL     -0.228446
    132 C46        -0.5000   -3.3600    4.4480 ca        1 MOL     -0.228446
    133 C47        -1.7840   -3.4740    5.0040 ca        1 MOL      0.279494
    134 O20        -1.8750   -3.8470    6.3330 oh        1 MOL     -0.503676
    135 H56        -0.9510   -2.5030   -2.0500 hn        1 MOL      0.280012
    136 H57        -0.9100   -4.2290    0.3170 h1        1 MOL      0.012551
    137 H58        -2.1960   -1.5860    0.5750 hc        1 MOL      0.004535
    138 H59        -0.4360   -1.6080    0.6990 hc        1 MOL      0.004535
    139 H60        -3.5250   -2.1370    2.4200 ha        1 MOL      0.157576
    140 H61         0.6360   -3.0160    2.6240 ha        1 MOL      0.157576
    141 H62        -3.8800   -3.0310    4.6670 ha        1 MOL      0.138065
    142 H63         0.3510   -3.5470    5.0780 ha        1 MOL      0.138065
    143 H64        -2.7460   -3.6140    6.6780 ho        1 MOL      0.352496
    144 N13        -3.4780   -4.6710   -0.0540 n         1 MOL     -0.529983
    145 C48        -4.8590   -4.9440   -0.2080 c3        1 MOL      0.063413
    146 C49        -5.7350   -4.0880    0.7850 c         1 MOL      0.494563
    147 O21        -5.7410   -4.2700    1.9990 o         1 MOL     -0.561351
    148 C50        -5.2080   -6.4610   -0.0030 c3        1 MOL      0.049247
    149 C51        -4.7730   -7.3990   -1.2000 c3        1 MOL     -0.371711
    150 C52        -5.1120   -8.7860   -0.6470 c         1 MOL      0.684466
    151 O22        -4.3950   -9.2550    0.2680 o         1 MOL     -0.665466
    152 O23        -6.1460   -9.4500   -0.9630 o         1 MOL     -0.665466
    153 H65        -2.9850   -5.0360    0.7560 hn        1 MOL      0.300377
    154 H66        -5.1720   -4.6380   -1.2030 h1        1 MOL      0.068009
    155 H67        -6.2440   -6.5950    0.3080 hc        1 MOL      0.060285
    156 H68        -4.6600   -6.7810    0.8750 hc        1 MOL      0.060285
    157 H69        -3.6930   -7.3200   -1.3330 hc        1 MOL      0.089197
    158 H70        -5.2850   -7.1040   -2.1100 hc        1 MOL      0.089197
    159 N14        -6.6520   -3.2400    0.2610 n         1 MOL     -0.494716
    160 C53        -6.5320   -2.6380   -1.1090 c3        1 MOL     -0.050060
    161 C54        -7.2320   -3.4150   -2.2040 c         1 MOL      0.559723
    162 O24        -8.1150   -4.2830   -1.9540 o         1 MOL     -0.555640
    163 C55        -6.9880   -1.1740   -1.1230 c3        1 MOL     -0.107934
    164 C56        -6.2200   -0.3230   -0.0840 c3        1 MOL      0.281428
    165 C57        -7.0270    0.9000    0.3710 c         1 MOL      0.484449
    166 O25        -7.2560    1.0160    1.6030 o         1 MOL     -0.684385
    167 O26        -7.3860    1.8530   -0.4050 o         1 MOL     -0.684385
    168 H71        -7.4990   -3.0320    0.7760 hn        1 MOL      0.343467
    169 H72        -5.4740   -2.5900   -1.3630 h1        1 MOL      0.099004
    170 H73        -8.0790   -1.1740   -1.0690 hc        1 MOL     -0.003083
    171 H74        -6.9470   -0.7240   -2.1120 hc        1 MOL     -0.003083
    172 H75        -5.3000   -0.0790   -0.6250 hc        1 MOL     -0.044277
    173 H76        -6.0650   -0.9220    0.8130 hc        1 MOL     -0.044277
    174 N15        -6.7550   -3.1550   -3.4240 n         1 MOL     -0.338474
    175 C58        -7.0560   -3.8090   -4.7280 c3        1 MOL     -0.168796
    176 H77        -6.9110   -3.0910   -5.5360 h1        1 MOL      0.091920
    177 H78        -6.3870   -4.6570   -4.8720 h1        1 MOL      0.091920
    178 H79        -8.0890   -4.1550   -4.7320 h1        1 MOL      0.091920
    179 H80        -5.9340   -2.5730   -3.4030 hn        1 MOL      0.277527
    180 Ca1        -7.7120    3.6380    1.4670 Ca        1 MOL      1.641587
    181 O27        -8.8270    6.1310    1.7200 oh        1 MOL     -0.787044
    182 H81        -8.5090    6.8880    2.2050 ho        1 MOL      0.371337
    183 H82        -9.6210    6.4400    1.2830 ho        1 MOL      0.371337
    184 O28       -10.0690    3.7680    0.1180 oh        1 MOL     -0.787044
    185 H83       -10.4000    3.9530   -0.7690 ho        1 MOL      0.371337
    186 H84       -10.8620    3.6370    0.6380 ho        1 MOL      0.371337
    187 O29        -7.2770    4.0500    4.1530 oh        1 MOL     -0.787044
    188 H85        -7.9180    4.5030    4.6980 ho        1 MOL      0.371337
    189 H86        -6.4340    4.2120    4.5730 ho        1 MOL      0.371337
    190 O30        -9.7230    3.0790    2.9840 oh        1 MOL     -0.787044
    191 H87       -10.0230    3.5050    3.7870 ho        1 MOL      0.371337
    192 H88       -10.5150    2.7200    2.5900 ho        1 MOL      0.371337
@<TRIPOS>BOND
     1    1    2 1   
     2    1    4 1   
     3    1    5 1   
     4    1    6 1   
     5    2    3 2   
     6    2    7 1   
     7    7    8 1   
     8    7   15 1   
     9    8    9 1   
    10    8   11 1   
    11    8   16 1   
    12    9   10 2   
    13    9   19 1   
    14   11   12 1   
    15   11   17 1   
    16   11   18 1   
    17   12   13 1   
    18   12   14 1   
    19   19   20 1   
    20   19   27 1   
    21   20   21 1   
    22   20   23 1   
    23   20   28 1   
    24   21   22 2   
    25   21   38 1   
    26   23   24 1   
    27   23   25 1   
    28   23   29 1   
    29   24   26 1   
    30   24   30 1   
    31   24   31 1   
    32   25   32 1   
    33   25   33 1   
    34   25   34 1   
    35   26   35 1   
    36   26   36 1   
    37   26   37 1   
    38   38   39 1   
    39   38   46 1   
    40   39   40 1   
    41   39   42 1   
    42   39   47 1   
    43   40   41 2   
    44   40   50 1   
    45   42   43 1   
    46   42   48 1   
    47   42   49 1   
    48   43   44 1   
    49   43   45 1   
    50   50   51 1   
    51   50   54 1   
    52   51   52 1   
    53   51   55 1   
    54   51   56 1   
    55   52   53 2   
    56   52   57 1   
    57   57   58 1   
    58   57   65 1   
    59   58   59 1   
    60   58   61 1   
    61   58   66 1   
    62   59   60 2   
    63   59   69 1   
    64   61   62 1   
    65   61   67 1   
    66   61   68 1   
    67   62   63 1   
    68   62   64 1   
    69   69   70 1   
    70   69   73 1   
    71   70   71 1   
    72   70   74 1   
    73   70   75 1   
    74   71   72 2   
    75   71   76 1   
    76   76   77 1   
    77   76   85 1   
    78   77   78 1   
    79   77   80 1   
    80   77   86 1   
    81   78   79 2   
    82   78   93 1   
    83   80   81 1   
    84   80   87 1   
    85   80   88 1   
    86   81   82 1   
    87   81   89 1   
    88   81   90 1   
    89   82   83 1   
    90   82   84 2   
    91   83   91 1   
    92   83   92 1   
    93   93   94 1   
    94   93  100 1   
    95   94   95 1   
    96   94   97 1   
    97   94  101 1   
    98   95   96 2   
    99   95  109 1   
   100   97   98 1   
   101   97   99 1   
   102   97  102 1   
   103   98  103 1   
   104   98  104 1   
   105   98  105 1   
   106   99  106 1   
   107   99  107 1   
   108   99  108 1   
   109  109  110 1   
   110  109  117 1   
   111  110  111 1   
   112  110  113 1   
   113  110  118 1   
   114  111  112 2   
   115  111  123 1   
   116  113  114 1   
   117  113  119 1   
   118  113  120 1   
   119  114  115 1   
   120  114  116 2   
   121  115  121 1   
   122  115  122 1   
   123  123  124 1   
   124  123  135 1   
   125  124  125 1   
   126  124  127 1   
   127  124  136 1   
   128  125  126 2   
   129  125  144 1   
   130  127  128 1   
   131  127  137 1   
   132  127  138 1   
   133  128  129 ar  
   134  128  130 ar  
   135  129  131 ar  
   136  129  139 1   
   137  130  132 ar  
   138  130  140 1   
   139  131  133 ar  
   140  131  141 1   
   141  132  133 ar  
   142  132  142 1   
   143  133  134 1   
   144  134  143 1   
   145  144  145 1   
   146  144  153 1   
   147  145  146 1   
   148  145  148 1   
   149  145  154 1   
   150  146  147 2   
   151  146  159 1   
   152  148  149 1   
   153  148  155 1   
   154  148  156 1   
   155  149  150 1   
   156  149  157 1   
   157  149  158 1   
   158  150  151 1   
   159  150  152 1   
   160  159  160 1   
   161  159  168 1   
   162  160  161 1   
   163  160  163 1   
   164  160  169 1   
   165  161  162 2   
   166  161  174 1   
   167  163  164 1   
   168  163  170 1   
   169  163  171 1   
   170  164  165 1   
   171  164  172 1   
   172  164  173 1   
   173  165  166 1   
   174  165  167 1   
   175  174  175 1   
   176  174  179 1   
   177  175  176 1   
   178  175  177 1   
   179  175  178 1   
   180  181  182 1   
   181  181  183 1   
   182  184  185 1   
   183  184  186 1   
   184  187  188 1   
   185  187  189 1   
   186  190  191 1   
   187  190  192 1   
@<TRIPOS>SUBSTRUCTURE
     1 MOL         1 TEMP              0 ****  ****    0 ROOT
