@<TRIPOS>MOLECULE
MOL
  182   178     1     0     0
SMALL
resp


@<TRIPOS>ATOM
      1 C1          1.2990   -4.1830    5.8380 c3        1 MOL     -0.407166
      2 C2          1.3570   -4.0500    4.3450 c         1 MOL      0.899340
      3 O1          0.4260   -4.2550    3.6290 o         1 MOL     -0.666317
      4 H1          1.6190   -3.2480    6.2990 hc        1 MOL      0.106803
      5 H2          0.2770   -4.4080    6.1440 hc        1 MOL      0.106803
      6 H3          1.9600   -4.9900    6.1580 hc        1 MOL      0.106803
      7 N1          2.5470   -3.7750    3.8830 n         1 MOL     -0.642607
      8 C3          2.7600   -3.3470    2.5360 c3        1 MOL      0.117815
      9 C4          2.9550   -4.5830    1.6010 c         1 MOL      0.561150
     10 O2          3.4150   -5.6620    2.0260 o         1 MOL     -0.580623
     11 C5          3.8860   -2.3290    2.5300 c3        1 MOL      0.077903
     12 C6          3.9510   -1.4660    1.3030 c         1 MOL      0.496535
     13 O3          4.0620   -0.2620    1.3970 o         1 MOL     -0.642750
     14 O4          3.6040   -1.9510    0.2000 o         1 MOL     -0.642750
     15 H4          3.2860   -3.6220    4.5600 hn        1 MOL      0.320988
     16 H5          1.9000   -2.8430    2.1110 h1        1 MOL     -0.305390
     17 H6          4.8540   -2.8110    2.5860 hc        1 MOL      0.020265
     18 H7          3.8830   -1.6920    3.4200 hc        1 MOL      0.020265
     19 N2          2.7150   -4.5000    0.3090 n         1 MOL     -0.205843
     20 C7          2.9290   -5.5480   -0.6790 c3        1 MOL     -0.037937
     21 C8          3.9840   -5.0970   -1.7300 c         1 MOL      0.347798
     22 O5          4.3570   -5.9680   -2.5200 o         1 MOL     -0.547075
     23 C9          1.6060   -5.8510   -1.4870 c3        1 MOL      0.173114
     24 C10         0.4570   -6.3440   -0.5730 c3        1 MOL     -0.237452
     25 C11        -0.6570   -6.8820   -1.5540 c3        1 MOL      0.029346
     26 C12        -1.3070   -5.6190   -2.0710 c3        1 MOL      0.015502
     27 N3         -1.6590   -5.7990   -3.5290 n4        1 MOL     -0.344978
     28 H8          2.4260   -3.6100   -0.0780 hn        1 MOL      0.246960
     29 H9          3.2510   -6.4530   -0.1690 h1        1 MOL      0.123467
     30 H10         1.8850   -6.5760   -2.2430 hc        1 MOL     -0.017852
     31 H11         1.3490   -4.9360   -2.0330 hc        1 MOL     -0.017852
     32 H12         0.1700   -5.5190    0.0840 hc        1 MOL      0.070058
     33 H13         0.9100   -7.2040   -0.0960 hc        1 MOL      0.070058
     34 H14        -1.3650   -7.5140   -1.0140 hc        1 MOL      0.042617
     35 H15        -0.1860   -7.5110   -2.2970 hc        1 MOL      0.042617
     36 H16        -0.7080   -4.7490   -1.8160 hx        1 MOL      0.070654
     37 H17        -2.2310   -5.4530   -1.5230 hx        1 MOL      0.070654
     38 H18        -2.1450   -6.6710   -3.6330 hn        1 MOL      0.272490
     39 H19        -2.1760   -4.9920   -3.8540 hn        1 MOL      0.272490
     40 H20        -0.8600   -5.7770   -4.1500 hn        1 MOL      0.272490
     41 N4          4.3790   -3.8320   -1.8970 n         1 MOL     -0.100026
     42 C13         5.5640   -3.3470   -2.6300 c3        1 MOL      0.128102
     43 C14         6.5800   -2.7590   -1.6420 c         1 MOL      0.293358
     44 O6          7.7310   -2.4540   -2.0400 o         1 MOL     -0.517004
     45 C15         5.1850   -2.3660   -3.7860 c3        1 MOL     -0.493697
     46 C16         4.4300   -1.2100   -3.2030 c         1 MOL      0.845990
     47 O7          5.0200   -0.3890   -2.4730 o         1 MOL     -0.750346
     48 O8          3.1870   -1.2910   -3.1460 o         1 MOL     -0.750346
     49 H21         3.9110   -3.1800   -1.2810 hn        1 MOL      0.012730
     50 H22         6.0120   -4.2250   -3.0990 h1        1 MOL      0.110504
     51 H23         4.6370   -2.8940   -4.5650 hc        1 MOL      0.136809
     52 H24         6.0790   -2.0560   -4.3330 hc        1 MOL      0.136809
     53 N5          6.2120   -2.6270   -0.3710 n         1 MOL     -0.040733
     54 C17         6.9790   -2.1110    0.6820 c3        1 MOL     -0.285312
     55 C18         7.1490   -0.5810    0.8510 c         1 MOL      0.569896
     56 O9          7.6210   -0.1610    1.8900 o         1 MOL     -0.553966
     57 H25         5.3280   -3.0250   -0.0760 hn        1 MOL      0.123605
     58 H26         8.0150   -2.4390    0.5370 h1        1 MOL      0.128135
     59 H27         6.6330   -2.5510    1.6230 h1        1 MOL      0.128135
     60 N6          6.8770    0.2770   -0.1750 n         1 MOL     -0.414564
     61 C19         7.1590    1.7010   -0.1920 c3        1 MOL      0.417152
     62 C20         5.8810    2.5110   -0.5390 c         1 MOL      0.443681
     63 O10         4.7460    1.9430   -0.4490 o         1 MOL     -0.510461
     64 C21         8.2890    1.8930   -1.2590 c3        1 MOL     -0.431950
     65 C22         8.8570    3.2870   -1.3170 c         1 MOL      0.754151
     66 N7          9.2200    3.7020   -2.4760 n         1 MOL     -0.827033
     67 O11         8.8800    4.0020   -0.3710 o         1 MOL     -0.599749
     68 H28         6.4190   -0.1900   -0.9490 hn        1 MOL      0.254572
     69 H29         7.5130    2.0720    0.7640 h1        1 MOL      0.022295
     70 H30         7.8590    1.6070   -2.2150 hc        1 MOL      0.119484
     71 H31         9.1960    1.3400   -1.0080 hc        1 MOL      0.119484
     72 H32         9.4660    3.0230   -3.1730 hn        1 MOL      0.374948
     73 H33         9.5610    4.6500   -2.4260 hn        1 MOL      0.374948
     74 N8          5.9680    3.8440   -0.7350 n         1 MOL     -0.488308
     75 C23         4.8690    4.8240   -0.8210 c3        1 MOL      0.019875
     76 C24         3.8330    4.6910    0.3180 c         1 MOL      0.583081
     77 O12         4.2620    4.5680    1.4240 o         1 MOL     -0.488649
     78 H34         6.8810    4.2530   -0.7390 hn        1 MOL      0.318163
     79 H35         4.3960    4.7760   -1.7950 h1        1 MOL      0.045111
     80 H36         5.2280    5.8510   -0.7740 h1        1 MOL      0.045111
     81 N9          2.5660    4.7970   -0.0280 n         1 MOL     -0.600022
     82 C25         1.4120    4.4550    0.9400 c3        1 MOL      0.242744
     83 C26         1.3170    2.9580    1.2630 c         1 MOL      0.494446
     84 O13         2.0160    2.1970    0.5810 o         1 MOL     -0.475362
     85 C27         0.0970    4.9830    0.3790 c3        1 MOL     -0.040759
     86 C28         0.0280    6.4870    0.1160 ca        1 MOL      0.070912
     87 C29        -0.2310    6.9660   -1.2260 ca        1 MOL     -0.184907
     88 C30         0.3590    7.3780    1.1270 ca        1 MOL     -0.184907
     89 C31        -0.3230    8.3300   -1.3880 ca        1 MOL     -0.201886
     90 C32         0.4230    8.7590    0.8500 ca        1 MOL     -0.201886
     91 C33         0.0730    9.2320   -0.3900 ca        1 MOL      0.295756
     92 O14        -0.0770   10.5530   -0.5620 oh        1 MOL     -0.472933
     93 H37         2.3800    5.0800   -0.9780 hn        1 MOL      0.265746
     94 H38         1.6000    5.0600    1.8220 h1        1 MOL      0.051931
     95 H39        -0.7310    4.7080    1.0280 hc        1 MOL     -0.003717
     96 H40        -0.0780    4.5360   -0.6070 hc        1 MOL     -0.003717
     97 H41        -0.4840    6.2890   -2.0270 ha        1 MOL      0.136949
     98 H42         0.5760    7.0010    2.1220 ha        1 MOL      0.136949
     99 H43        -0.6540    8.8360   -2.2930 ha        1 MOL      0.140645
    100 H44         0.7790    9.4310    1.6080 ha        1 MOL      0.140645
    101 H45        -0.2780   10.9160   -1.4290 ho        1 MOL      0.374920
    102 N10         0.4080    2.5950    2.1610 n         1 MOL     -0.762378
    103 C34         0.1730    1.2300    2.6180 c3        1 MOL      0.498156
    104 C35        -0.1000    0.2430    1.4630 c         1 MOL      0.080745
    105 O15         0.8580   -0.2330    0.8410 o         1 MOL     -0.146386
    106 C36         1.2390    0.6950    3.5520 c3        1 MOL      0.093587
    107 C37         0.6840   -0.6230    4.1700 c3        1 MOL     -0.079475
    108 C38         1.6110    1.7320    4.6580 c3        1 MOL     -0.227854
    109 C39        -0.4030   -0.5360    5.2750 c3        1 MOL     -0.425010
    110 H46        -0.0500    3.3850    2.6020 hn        1 MOL      0.348008
    111 H47        -0.7170    1.3750    3.2220 h1        1 MOL     -0.013736
    112 H48         2.1330    0.5080    2.9640 hc        1 MOL      0.058247
    113 H49         1.5760   -0.9740    4.6980 hc        1 MOL      0.088134
    114 H50         0.4380   -1.3930    3.4360 hc        1 MOL      0.088134
    115 H51         0.6950    2.0580    5.1560 hc        1 MOL      0.065447
    116 H52         2.3250    1.3750    5.4040 hc        1 MOL      0.065447
    117 H53         2.1100    2.5630    4.1650 hc        1 MOL      0.065447
    118 H54        -1.3570   -0.2810    4.8260 hc        1 MOL      0.105012
    119 H55        -0.5610   -1.5620    5.6170 hc        1 MOL      0.105012
    120 H56        -0.1170   -0.0340    6.2080 hc        1 MOL      0.105012
    121 N11        -1.3890   -0.1660    1.3520 n         1 MOL     -0.336854
    122 C40        -1.9030   -1.1940    0.4260 c3        1 MOL     -0.038799
    123 C41        -3.3730   -1.1480    0.0240 c         1 MOL      0.599355
    124 O16        -3.9430   -1.9980   -0.7570 o         1 MOL     -0.585510
    125 C42        -1.6980   -2.5480    1.1060 c3        1 MOL     -0.188776
    126 O17        -0.3310   -2.9200    0.9930 oh        1 MOL     -0.424520
    127 H57        -2.0460    0.2260    2.0100 hn        1 MOL      0.275733
    128 H58        -1.4670   -1.1930   -0.5720 h1        1 MOL      0.119242
    129 H59        -2.3370   -3.3000    0.6510 h1        1 MOL      0.118347
    130 H60        -2.0000   -2.5400    2.1550 h1        1 MOL      0.118347
    131 H61        -0.2240   -3.4830    1.7550 ho        1 MOL      0.455674
    132 N12        -4.1570   -0.1680    0.5010 n         1 MOL     -0.542304
    133 C43        -5.5620   -0.0800    0.1670 c3        1 MOL      0.105810
    134 C44        -5.7600    0.6140   -1.1930 c         1 MOL      0.667072
    135 O18        -4.9180    1.3180   -1.7500 o         1 MOL     -0.583708
    136 C45        -6.2060    0.6480    1.3560 c3        1 MOL     -0.265572
    137 H62        -3.7470    0.5090    1.1290 hn        1 MOL      0.289193
    138 H63        -6.0560   -1.0620    0.1540 h1        1 MOL      0.123172
    139 H64        -5.7870    1.6430    1.4480 hc        1 MOL      0.095352
    140 H65        -7.2840    0.5380    1.4730 hc        1 MOL      0.095352
    141 H66        -5.9090    0.2450    2.3280 hc        1 MOL      0.095352
    142 N13        -6.9010    0.4180   -1.8150 n         1 MOL     -0.666663
    143 C46        -8.1400   -0.1570   -1.4510 c3        1 MOL      0.501925
    144 C47        -9.3030    0.5800   -2.1230 c         1 MOL      0.449284
    145 O19        -9.2030    1.2340   -3.1100 o         1 MOL     -0.538844
    146 C48        -8.1720   -1.7040   -1.7380 c3        1 MOL     -0.309448
    147 H67        -6.8690    0.7510   -2.7700 hn        1 MOL      0.314923
    148 H68        -8.2900    0.0390   -0.3940 h1        1 MOL     -0.129910
    149 H69        -8.2450   -1.9870   -2.7870 hc        1 MOL      0.088739
    150 H70        -7.3590   -2.2500   -1.2520 hc        1 MOL      0.088739
    151 H71        -9.0900   -2.1070   -1.3040 hc        1 MOL      0.088739
    152 N14       -10.5240    0.4730   -1.6490 n         1 MOL     -0.512546
    153 C49       -10.8260    0.0880   -0.3030 c3        1 MOL     -0.014106
    154 C50       -10.2310    1.0520    0.8050 c         1 MOL      0.393243
    155 O20        -9.8070    0.6480    1.8780 o         1 MOL     -0.510085
    156 C51       -12.3370   -0.0510   -0.0430 c3        1 MOL     -0.013622
    157 C52       -13.0310   -1.1450   -0.8720 c3        1 MOL     -0.177140
    158 C53       -14.4410   -1.3430   -0.3750 c         1 MOL      0.726878
    159 O21       -15.2540   -0.4390   -0.4980 o         1 MOL     -0.665144
    160 O22       -14.8020   -2.4480    0.0520 o         1 MOL     -0.665144
    161 H72       -11.1580    1.1230   -2.0830 hn        1 MOL      0.359742
    162 H73       -10.3980   -0.8790   -0.0640 h1        1 MOL      0.097360
    163 H74       -12.7790    0.9350   -0.2300 hc        1 MOL      0.032992
    164 H75       -12.3250   -0.2810    1.0250 hc        1 MOL      0.032992
    165 H76       -12.4750   -2.0830   -0.9250 hc        1 MOL      0.024579
    166 H77       -13.1770   -0.7310   -1.8730 hc        1 MOL      0.024579
    167 N15       -10.1010    2.2770    0.4350 n         1 MOL     -0.188561
    168 C54        -9.3870    3.2230    1.2730 c3        1 MOL     -0.197105
    169 H78        -8.4790    3.5450    0.7640 h1        1 MOL      0.091936
    170 H79       -10.0210    4.0880    1.4670 h1        1 MOL      0.091936
    171 H80        -9.1230    2.7460    2.2180 h1        1 MOL      0.091936
    172 H81       -10.6280    2.6660   -0.3320 hn        1 MOL      0.247732
    173 Ca1         2.6990    0.1740   -1.0580 Ca        1 MOL      1.704986
    174 O23         0.9940   -2.2680   -1.3460 oh        1 MOL     -0.870671
    175 O24         0.1410    1.3160   -1.9340 oh        1 MOL     -0.870671
    176 H82         0.3390   -2.5970   -1.9560 ho        1 MOL      0.424943
    177 H83        -0.7560    1.2150   -2.2550 ho        1 MOL      0.424943
    178 H84         0.5910   -2.3460   -0.4880 ho        1 MOL      0.424943
    179 H85         0.3380    2.2480   -2.0510 ho        1 MOL      0.424943
    180 O25         2.7180    1.9270   -3.3110 oh        1 MOL     -0.870671
    181 H86         2.4310    2.8180   -3.1320 ho        1 MOL      0.424943
    182 H87         2.8480    1.9030   -4.2630 ho        1 MOL      0.424943
@<TRIPOS>BOND
     1    1    2 1   
     2    1    4 1   
     3    1    5 1   
     4    1    6 1   
     5    2    3 2   
     6    2    7 1   
     7    7    8 1   
     8    7   15 1   
     9    8    9 1   
    10    8   11 1   
    11    8   16 1   
    12    9   10 2   
    13    9   19 1   
    14   11   12 1   
    15   11   17 1   
    16   11   18 1   
    17   12   13 1   
    18   12   14 1   
    19   19   20 1   
    20   19   28 1   
    21   20   21 1   
    22   20   23 1   
    23   20   29 1   
    24   21   22 2   
    25   21   41 1   
    26   23   24 1   
    27   23   30 1   
    28   23   31 1   
    29   24   25 1   
    30   24   32 1   
    31   24   33 1   
    32   25   26 1   
    33   25   34 1   
    34   25   35 1   
    35   26   27 1   
    36   26   36 1   
    37   26   37 1   
    38   27   38 1   
    39   27   39 1   
    40   27   40 1   
    41   41   42 1   
    42   41   49 1   
    43   42   43 1   
    44   42   45 1   
    45   42   50 1   
    46   43   44 2   
    47   43   53 1   
    48   45   46 1   
    49   45   51 1   
    50   45   52 1   
    51   46   47 1   
    52   46   48 1   
    53   53   54 1   
    54   53   57 1   
    55   54   55 1   
    56   54   58 1   
    57   54   59 1   
    58   55   56 2   
    59   55   60 1   
    60   60   61 1   
    61   60   68 1   
    62   61   62 1   
    63   61   64 1   
    64   61   69 1   
    65   62   63 2   
    66   62   74 1   
    67   64   65 1   
    68   64   70 1   
    69   64   71 1   
    70   65   66 1   
    71   65   67 2   
    72   66   72 1   
    73   66   73 1   
    74   74   75 1   
    75   74   78 1   
    76   75   76 1   
    77   75   79 1   
    78   75   80 1   
    79   76   77 2   
    80   76   81 1   
    81   81   82 1   
    82   81   93 1   
    83   82   83 1   
    84   82   85 1   
    85   82   94 1   
    86   83   84 2   
    87   83  102 1   
    88   85   86 1   
    89   85   95 1   
    90   85   96 1   
    91   86   87 ar  
    92   86   88 ar  
    93   87   89 ar  
    94   87   97 1   
    95   88   90 ar  
    96   88   98 1   
    97   89   91 ar  
    98   89   99 1   
    99   90   91 ar  
   100   90  100 1   
   101   91   92 1   
   102   92  101 1   
   103  102  103 1   
   104  102  110 1   
   105  103  104 1   
   106  103  106 1   
   107  103  111 1   
   108  104  105 2   
   109  104  121 1   
   110  106  107 1   
   111  106  108 1   
   112  106  112 1   
   113  107  109 1   
   114  107  113 1   
   115  107  114 1   
   116  108  115 1   
   117  108  116 1   
   118  108  117 1   
   119  109  118 1   
   120  109  119 1   
   121  109  120 1   
   122  121  122 1   
   123  121  127 1   
   124  122  123 1   
   125  122  125 1   
   126  122  128 1   
   127  123  124 2   
   128  123  132 1   
   129  125  126 1   
   130  125  129 1   
   131  125  130 1   
   132  126  131 1   
   133  132  133 1   
   134  132  137 1   
   135  133  134 1   
   136  133  136 1   
   137  133  138 1   
   138  134  135 2   
   139  134  142 1   
   140  136  139 1   
   141  136  140 1   
   142  136  141 1   
   143  142  143 1   
   144  142  147 1   
   145  143  144 1   
   146  143  146 1   
   147  143  148 1   
   148  144  145 2   
   149  144  152 1   
   150  146  149 1   
   151  146  150 1   
   152  146  151 1   
   153  152  153 1   
   154  152  161 1   
   155  153  154 1   
   156  153  156 1   
   157  153  162 1   
   158  154  155 2   
   159  154  167 1   
   160  156  157 1   
   161  156  163 1   
   162  156  164 1   
   163  157  158 1   
   164  157  165 1   
   165  157  166 1   
   166  158  159 1   
   167  158  160 1   
   168  167  168 1   
   169  167  172 1   
   170  168  169 1   
   171  168  170 1   
   172  168  171 1   
   173  174  176 1   
   174  174  178 1   
   175  175  177 1   
   176  175  179 1   
   177  180  181 1   
   178  180  182 1   
@<TRIPOS>SUBSTRUCTURE
     1 MOL         1 TEMP              0 ****  ****    0 ROOT
