@<TRIPOS>MOLECULE
MOL
  178   175     1     0     0
SMALL
resp


@<TRIPOS>ATOM
      1 C1          0.6840    6.6450   -2.4260 c3        1 MOL     -0.400858
      2 C2          2.0120    6.6880   -1.6670 c         1 MOL      0.699251
      3 O1          2.1600    7.4660   -0.6990 o         1 MOL     -0.579343
      4 H1         -0.1080    6.3160   -1.7520 hc        1 MOL      0.096681
      5 H2          0.4480    7.6400   -2.8040 hc        1 MOL      0.096681
      6 H3          0.7630    5.9490   -3.2600 hc        1 MOL      0.096681
      7 N1          3.0280    5.9610   -2.1900 n         1 MOL     -0.507113
      8 C3          4.2660    5.9120   -1.4910 c3        1 MOL      0.017916
      9 C4          4.3680    4.8800   -0.3670 c         1 MOL      0.596937
     10 O2          3.8730    3.7660   -0.5480 o         1 MOL     -0.521000
     11 C5          5.4360    5.6640   -2.5450 c3        1 MOL     -0.171808
     12 C6          6.8370    5.5600   -1.9450 c         1 MOL      0.718166
     13 O3          7.5790    4.7250   -2.4680 o         1 MOL     -0.734579
     14 O4          7.1500    6.2870   -0.9770 o         1 MOL     -0.734579
     15 H4          3.0060    5.5770   -3.1280 hn        1 MOL      0.297291
     16 H5          4.4130    6.8970   -1.0600 h1        1 MOL      0.053175
     17 H6          5.4480    6.5010   -3.2490 hc        1 MOL      0.023511
     18 H7          5.2150    4.7640   -3.1130 hc        1 MOL      0.023511
     19 N2          4.8210    5.1780    0.8710 n         1 MOL     -0.509427
     20 C7          4.7870    4.2950    2.0900 c3        1 MOL      0.285822
     21 C8          3.4030    3.7370    2.3350 c         1 MOL      0.397598
     22 O5          2.3260    4.3010    2.0550 o         1 MOL     -0.570684
     23 C9          5.2080    5.0940    3.2940 c3        1 MOL     -0.419377
     24 H8          5.1190    6.1430    0.9630 hn        1 MOL      0.287743
     25 H9          5.4350    3.4460    1.8460 h1        1 MOL      0.059184
     26 H10         5.2140    4.4580    4.1820 hc        1 MOL      0.117442
     27 H11         6.1960    5.5360    3.1810 hc        1 MOL      0.117442
     28 H12         4.5340    5.9460    3.3240 hc        1 MOL      0.117442
     29 N3          3.2180    2.5630    2.8690 n         1 MOL     -0.222561
     30 C10         4.2760    1.6070    3.3650 c3        1 MOL     -0.051549
     31 C11         4.6380    0.4820    2.4000 c         1 MOL      0.378882
     32 O6          3.9020    0.1660    1.4650 o         1 MOL     -0.427395
     33 C12         3.6490    0.9780    4.6870 c3        1 MOL     -0.196242
     34 C13         2.2750    0.3290    4.4270 c         1 MOL      0.690550
     35 O7          1.7290    0.2060    3.2920 o         1 MOL     -0.670519
     36 O8          1.6600   -0.1040    5.3990 o         1 MOL     -0.670519
     37 H13         2.2430    2.4120    3.0870 hn        1 MOL      0.202541
     38 H14         5.2260    2.0730    3.6420 h1        1 MOL      0.041956
     39 H15         3.6040    1.7190    5.4890 hc        1 MOL      0.049566
     40 H16         4.3290    0.1570    4.8920 hc        1 MOL      0.049566
     41 N4          5.7270   -0.2250    2.6920 n         1 MOL     -0.284949
     42 C14         6.3090   -1.2530    1.8420 c3        1 MOL     -0.084014
     43 C15         7.0940   -0.6870    0.6720 c         1 MOL      0.643985
     44 O9          7.3460    0.4960    0.7690 o         1 MOL     -0.479318
     45 H17         6.3160    0.0830    3.4560 hn        1 MOL      0.262767
     46 H18         5.4680   -1.8910    1.5550 h1        1 MOL      0.045155
     47 H19         6.9920   -1.7950    2.4850 h1        1 MOL      0.045155
     48 N5          7.5250   -1.4760   -0.3590 n         1 MOL     -0.714892
     49 C16         7.0350   -2.8140   -0.6810 c3        1 MOL      0.457820
     50 C17         5.7330   -2.8910   -1.5200 c         1 MOL      0.424725
     51 O10         5.2540   -1.8510   -1.9380 o         1 MOL     -0.449940
     52 C18         8.1770   -3.4920   -1.4050 c3        1 MOL     -0.287089
     53 C19         8.5780   -3.1540   -2.8880 c         1 MOL      0.734054
     54 N6          8.1040   -3.9720   -3.8070 n         1 MOL     -0.837709
     55 O11         9.3090   -2.2780   -3.2230 o         1 MOL     -0.522814
     56 H20         8.0030   -0.9670   -1.0920 hn        1 MOL      0.357529
     57 H21         6.9130   -3.3560    0.2570 h1        1 MOL     -0.031049
     58 H22         8.0210   -4.5670   -1.4150 hc        1 MOL      0.037020
     59 H23         9.1380   -3.2790   -0.9180 hc        1 MOL      0.037020
     60 H24         7.6630   -4.8220   -3.4780 hn        1 MOL      0.374289
     61 H25         8.2450   -3.8070   -4.7960 hn        1 MOL      0.374289
     62 N7          5.2100   -4.0850   -1.8120 n         1 MOL     -0.404906
     63 C20         4.1640   -4.2550   -2.8350 c3        1 MOL     -0.263277
     64 C21         2.8900   -4.8080   -2.2460 c         1 MOL      0.682260
     65 O12         2.0250   -5.0400   -3.0590 o         1 MOL     -0.593731
     66 H26         5.6560   -4.9020   -1.4310 hn        1 MOL      0.258133
     67 H27         4.4900   -5.0340   -3.5220 h1        1 MOL      0.149548
     68 H28         3.9720   -3.2950   -3.3070 h1        1 MOL      0.149548
     69 N8          2.6560   -4.9630   -0.9400 n         1 MOL     -0.431506
     70 C22         1.3780   -5.4270   -0.4290 c3        1 MOL     -0.016440
     71 C23         0.3080   -4.2810   -0.4350 c         1 MOL      0.551820
     72 O13         0.6090   -3.1660   -0.0940 o         1 MOL     -0.513482
     73 C24         1.5670   -5.9290    0.9830 c3        1 MOL      0.423608
     74 C25         0.1720   -6.4470    1.5920 c3        1 MOL     -0.532306
     75 O14         2.4870   -7.0340    0.9740 oh        1 MOL     -0.628102
     76 H29         3.3170   -4.7620   -0.2110 hn        1 MOL      0.176204
     77 H30         1.0120   -6.2170   -1.0880 h1        1 MOL      0.103404
     78 H31         1.9600   -5.1210    1.5930 h1        1 MOL     -0.036535
     79 H32         2.8030   -7.0170    1.8770 ho        1 MOL      0.379300
     80 H33        -0.2330   -7.2030    0.9280 hc        1 MOL      0.148498
     81 H34         0.3760   -6.8520    2.5790 hc        1 MOL      0.148498
     82 H35        -0.5840   -5.6710    1.7110 hc        1 MOL      0.148498
     83 N9         -0.9140   -4.5160   -0.9620 n         1 MOL     -0.357450
     84 C26        -2.0530   -3.5760   -0.9600 c3        1 MOL      0.019366
     85 C27        -2.7420   -3.5770    0.4060 c         1 MOL      0.225191
     86 O15        -2.9030   -4.6080    1.0920 o         1 MOL     -0.526868
     87 C28        -3.0610   -3.9220   -2.0520 c3        1 MOL      0.150067
     88 C29        -4.1480   -2.8730   -2.4050 c3        1 MOL      0.134721
     89 C30        -2.4390   -4.3640   -3.3920 c3        1 MOL     -0.350294
     90 C31        -5.2670   -3.2830   -3.3870 c3        1 MOL     -0.200157
     91 H36        -1.0570   -5.4140   -1.3950 hn        1 MOL      0.225481
     92 H37        -1.5760   -2.6160   -1.1220 h1        1 MOL      0.115653
     93 H38        -3.6450   -4.7840   -1.7150 hc        1 MOL      0.017478
     94 H39        -3.4790   -2.0930   -2.7670 hc        1 MOL     -0.023698
     95 H40        -4.6660   -2.4510   -1.5400 hc        1 MOL     -0.023698
     96 H41        -1.6940   -5.1620   -3.3110 hc        1 MOL      0.088623
     97 H42        -3.2390   -4.5750   -4.1050 hc        1 MOL      0.088623
     98 H43        -1.7850   -3.5490   -3.7010 hc        1 MOL      0.088623
     99 H44        -4.7980   -3.2240   -4.3630 hc        1 MOL      0.038997
    100 H45        -5.6180   -4.3100   -3.2820 hc        1 MOL      0.038997
    101 H46        -6.0260   -2.5040   -3.4240 hc        1 MOL      0.038997
    102 N10        -3.2220   -2.4920    1.0300 n         1 MOL      0.048628
    103 C32        -3.6610   -2.3930    2.3970 c3        1 MOL     -0.025334
    104 C33        -5.0830   -1.7780    2.4060 c         1 MOL      0.454924
    105 O16        -5.8640   -1.9970    3.3900 o         1 MOL     -0.557833
    106 C34        -2.6940   -1.5860    3.2680 c3        1 MOL      0.050844
    107 C35        -1.3460   -2.2850    3.2580 c         1 MOL      0.694793
    108 O17        -1.2670   -3.1480    4.1880 o         1 MOL     -0.704339
    109 O18        -0.4130   -2.0850    2.4620 o         1 MOL     -0.704339
    110 H47        -3.1690   -1.6030    0.5510 hn        1 MOL     -0.054408
    111 H48        -3.7890   -3.3340    2.9440 h1        1 MOL      0.115840
    112 H49        -3.0030   -1.5430    4.3050 hc        1 MOL     -0.018843
    113 H50        -2.5710   -0.5950    2.8340 hc        1 MOL     -0.018843
    114 N11        -5.4070   -0.9420    1.3850 n         1 MOL     -0.699957
    115 C36        -6.5630   -0.0950    1.2280 c3        1 MOL      0.857653
    116 C37        -6.2560    1.2830    0.5540 c         1 MOL     -0.021172
    117 O19        -6.8530    1.6020   -0.5230 o         1 MOL     -0.451550
    118 C38        -7.7450   -0.8500    0.5130 c3        1 MOL     -0.440048
    119 C39        -9.1010   -0.2980    0.3200 ca        1 MOL      0.223207
    120 C40        -9.8360   -0.6310   -0.8000 ca        1 MOL     -0.196052
    121 C41        -9.6860    0.4650    1.3670 ca        1 MOL     -0.196052
    122 C42       -11.0930   -0.0660   -1.0160 ca        1 MOL     -0.103043
    123 C43       -10.8850    1.1260    1.0560 ca        1 MOL     -0.103043
    124 C44       -11.5790    0.8530   -0.1210 ca        1 MOL     -0.137673
    125 H51        -4.6650   -0.9510    0.6930 hn        1 MOL      0.308855
    126 H52        -6.9420    0.1660    2.2130 h1        1 MOL     -0.079292
    127 H53        -7.8540   -1.7410    1.1380 hc        1 MOL      0.105784
    128 H54        -7.3470   -1.1640   -0.4540 hc        1 MOL      0.105784
    129 H55        -9.5060   -1.4410   -1.4350 ha        1 MOL      0.117336
    130 H56        -9.1790    0.7030    2.2970 ha        1 MOL      0.117336
    131 H57       -11.6390   -0.2890   -1.9110 ha        1 MOL      0.099869
    132 H58       -11.3330    1.8320    1.7350 ha        1 MOL      0.099869
    133 H59       -12.5610    1.2850   -0.2830 ha        1 MOL      0.089404
    134 N12        -5.3830    2.1320    1.1510 n         1 MOL      0.095709
    135 C45        -5.2560    3.5030    0.5990 c3        1 MOL      0.077644
    136 C46        -4.8560    3.5870   -0.8690 c         1 MOL      0.263331
    137 O20        -5.1350    4.4460   -1.6350 o         1 MOL     -0.457273
    138 C47        -4.1420    4.0560    1.5110 c3        1 MOL     -0.035244
    139 C48        -4.3990    3.4970    2.8700 c3        1 MOL     -0.158389
    140 C49        -4.7840    2.0420    2.5010 c3        1 MOL     -0.202344
    141 H60        -6.1250    4.1300    0.8180 h1        1 MOL      0.042984
    142 H61        -3.3010    3.5120    1.0800 hc        1 MOL      0.050822
    143 H62        -4.1950    5.1380    1.4390 hc        1 MOL      0.050822
    144 H63        -3.4950    3.5730    3.4630 hc        1 MOL      0.076082
    145 H64        -5.2890    4.0020    3.2430 hc        1 MOL      0.076082
    146 H65        -3.8900    1.4660    2.2800 h1        1 MOL      0.118964
    147 H66        -5.4480    1.5660    3.2250 h1        1 MOL      0.118964
    148 N13        -4.1650    2.5070   -1.3710 n         1 MOL     -0.318033
    149 C50        -3.8800    2.3100   -2.7810 c3        1 MOL      0.029891
    150 C51        -5.0810    2.3350   -3.6680 c         1 MOL      0.456443
    151 O21        -4.8940    2.9330   -4.7730 o         1 MOL     -0.583161
    152 C52        -3.3220    0.8860   -2.9980 c3        1 MOL      0.078353
    153 C53        -1.9980    0.6930   -2.1620 c3        1 MOL     -0.516743
    154 C54        -2.1500    0.3150   -0.6840 c         1 MOL      0.503946
    155 O22        -1.1620    0.2560    0.0790 o         1 MOL     -0.618873
    156 O23        -3.2950    0.0690   -0.2330 o         1 MOL     -0.618873
    157 H67        -3.9140    1.7510   -0.7440 hn        1 MOL      0.413917
    158 H68        -3.2020    3.0160   -3.2610 h1        1 MOL      0.073853
    159 H69        -3.1430    0.7070   -4.0540 hc        1 MOL     -0.005981
    160 H70        -4.0880    0.1840   -2.6610 hc        1 MOL     -0.005981
    161 H71        -1.3170    1.5360   -2.2770 hc        1 MOL      0.168439
    162 H72        -1.5790   -0.1910   -2.6460 hc        1 MOL      0.168439
    163 N14        -6.1850    1.7210   -3.2900 n         1 MOL     -0.157041
    164 C55        -7.4480    1.7320   -4.0810 c3        1 MOL     -0.320477
    165 H73        -8.2730    1.4020   -3.4500 h1        1 MOL      0.115955
    166 H74        -7.6450    2.7420   -4.4380 h1        1 MOL      0.115955
    167 H75        -7.3490    1.0580   -4.9320 h1        1 MOL      0.115955
    168 H76        -6.1530    1.0450   -2.5370 hn        1 MOL      0.260909
    169 Ca1         1.1630   -0.6790    1.0410 Ca        1 MOL      1.678104
    170 O24         2.9410   -2.5440    1.7830 oh        1 MOL     -0.838342
    171 H77         2.4550   -3.1220    2.3600 ho        1 MOL      0.410977
    172 H78         3.8090   -2.9430    1.7160 ho        1 MOL      0.410977
    173 O25         1.4630    1.9260    0.4600 oh        1 MOL     -0.838342
    174 H79         0.8260    2.2210    1.1080 ho        1 MOL      0.410977
    175 H80         1.9330    2.7250    0.2110 ho        1 MOL      0.410977
    176 O26         2.4290   -0.9010   -1.2250 oh        1 MOL     -0.838342
    177 H81         2.9410   -0.1340   -1.4620 ho        1 MOL      0.410977
    178 H82         2.8630   -1.6340   -1.6910 ho        1 MOL      0.410977
@<TRIPOS>BOND
     1    1    2 1   
     2    1    4 1   
     3    1    5 1   
     4    1    6 1   
     5    2    3 2   
     6    2    7 1   
     7    7    8 1   
     8    7   15 1   
     9    8    9 1   
    10    8   11 1   
    11    8   16 1   
    12    9   10 2   
    13    9   19 1   
    14   11   12 1   
    15   11   17 1   
    16   11   18 1   
    17   12   13 1   
    18   12   14 1   
    19   19   20 1   
    20   19   24 1   
    21   20   21 1   
    22   20   23 1   
    23   20   25 1   
    24   21   22 2   
    25   21   29 1   
    26   23   26 1   
    27   23   27 1   
    28   23   28 1   
    29   29   30 1   
    30   29   37 1   
    31   30   31 1   
    32   30   33 1   
    33   30   38 1   
    34   31   32 2   
    35   31   41 1   
    36   33   34 1   
    37   33   39 1   
    38   33   40 1   
    39   34   35 1   
    40   34   36 1   
    41   41   42 1   
    42   41   45 1   
    43   42   43 1   
    44   42   46 1   
    45   42   47 1   
    46   43   44 2   
    47   43   48 1   
    48   48   49 1   
    49   48   56 1   
    50   49   50 1   
    51   49   52 1   
    52   49   57 1   
    53   50   51 2   
    54   50   62 1   
    55   52   53 1   
    56   52   58 1   
    57   52   59 1   
    58   53   54 1   
    59   53   55 2   
    60   54   60 1   
    61   54   61 1   
    62   62   63 1   
    63   62   66 1   
    64   63   64 1   
    65   63   67 1   
    66   63   68 1   
    67   64   65 2   
    68   64   69 1   
    69   69   70 1   
    70   69   76 1   
    71   70   71 1   
    72   70   73 1   
    73   70   77 1   
    74   71   72 2   
    75   71   83 1   
    76   73   74 1   
    77   73   75 1   
    78   73   78 1   
    79   74   80 1   
    80   74   81 1   
    81   74   82 1   
    82   75   79 1   
    83   83   84 1   
    84   83   91 1   
    85   84   85 1   
    86   84   87 1   
    87   84   92 1   
    88   85   86 2   
    89   85  102 1   
    90   87   88 1   
    91   87   89 1   
    92   87   93 1   
    93   88   90 1   
    94   88   94 1   
    95   88   95 1   
    96   89   96 1   
    97   89   97 1   
    98   89   98 1   
    99   90   99 1   
   100   90  100 1   
   101   90  101 1   
   102  102  103 1   
   103  102  110 1   
   104  103  104 1   
   105  103  106 1   
   106  103  111 1   
   107  104  105 2   
   108  104  114 1   
   109  106  107 1   
   110  106  112 1   
   111  106  113 1   
   112  107  108 1   
   113  107  109 1   
   114  114  115 1   
   115  114  125 1   
   116  115  116 1   
   117  115  118 1   
   118  115  126 1   
   119  116  117 2   
   120  116  134 1   
   121  118  119 1   
   122  118  127 1   
   123  118  128 1   
   124  119  120 ar  
   125  119  121 ar  
   126  120  122 ar  
   127  120  129 1   
   128  121  123 ar  
   129  121  130 1   
   130  122  124 ar  
   131  122  131 1   
   132  123  124 ar  
   133  123  132 1   
   134  124  133 1   
   135  134  135 1   
   136  134  140 1   
   137  135  136 1   
   138  135  138 1   
   139  135  141 1   
   140  136  137 2   
   141  136  148 1   
   142  138  139 1   
   143  138  142 1   
   144  138  143 1   
   145  139  140 1   
   146  139  144 1   
   147  139  145 1   
   148  140  146 1   
   149  140  147 1   
   150  148  149 1   
   151  148  157 1   
   152  149  150 1   
   153  149  152 1   
   154  149  158 1   
   155  150  151 2   
   156  150  163 1   
   157  152  153 1   
   158  152  159 1   
   159  152  160 1   
   160  153  154 1   
   161  153  161 1   
   162  153  162 1   
   163  154  155 1   
   164  154  156 1   
   165  163  164 1   
   166  163  168 1   
   167  164  165 1   
   168  164  166 1   
   169  164  167 1   
   170  170  171 1   
   171  170  172 1   
   172  173  174 1   
   173  173  175 1   
   174  176  177 1   
   175  176  178 1   
@<TRIPOS>SUBSTRUCTURE
     1 MOL         1 TEMP              0 ****  ****    0 ROOT
