@<TRIPOS>MOLECULE
MOL
  192   187     1     0     0
SMALL
resp


@<TRIPOS>ATOM
      1 C1          5.4200    2.5070    6.0590 c3        1 MOL     -0.219053
      2 C2          5.0260    1.9390    4.6150 c         1 MOL      0.728660
      3 O1          4.7980    2.8030    3.7360 o         1 MOL     -0.579914
      4 H1          5.0440    1.8330    6.8290 hc        1 MOL      0.050597
      5 H2          6.5050    2.5800    6.1390 hc        1 MOL      0.050597
      6 H3          4.9780    3.4950    6.1950 hc        1 MOL      0.050597
      7 N1          4.7190    0.6130    4.4340 n         1 MOL     -0.649439
      8 C3          4.4680   -0.0820    3.1330 c3        1 MOL      0.459904
      9 C4          3.0450    0.0610    2.5100 c         1 MOL      0.000667
     10 O2          3.0170   -0.1850    1.3180 o         1 MOL     -0.362889
     11 C5          5.0320   -1.5400    3.0670 c3        1 MOL     -0.105671
     12 C6          6.4190   -1.7330    3.6870 c         1 MOL      0.664793
     13 O3          6.5720   -1.4120    4.8780 o         1 MOL     -0.688944
     14 O4          7.2450   -2.3540    2.9720 o         1 MOL     -0.688944
     15 H4          4.9350   -0.0070    5.2050 hn        1 MOL      0.285042
     16 H5          5.1080    0.5180    2.4780 h1        1 MOL      0.001656
     17 H6          5.0310   -1.7870    1.9990 hc        1 MOL     -0.003166
     18 H7          4.3100   -2.1560    3.5940 hc        1 MOL     -0.003166
     19 N2          2.0870    0.7100    3.1690 n         1 MOL     -0.207998
     20 C7          0.6840    0.5600    2.8510 c3        1 MOL      0.238036
     21 C8          0.1170    1.8970    2.2620 c         1 MOL      0.258314
     22 O5          0.5360    2.9680    2.7450 o         1 MOL     -0.459587
     23 C9         -0.0480   -0.0000    4.0790 c3        1 MOL     -0.139004
     24 C10         0.1820   -1.4710    4.4030 c3        1 MOL      0.089062
     25 C11        -0.4510   -1.9230    5.7150 c3        1 MOL     -0.273728
     26 C12        -1.9960   -1.7420    5.6850 c3        1 MOL      0.228193
     27 N3         -2.6660   -1.7320    7.0560 n4        1 MOL     -0.562492
     28 H8          2.3180    0.9930    4.1160 hn        1 MOL      0.182578
     29 H9          0.6180   -0.2240    2.0920 h1        1 MOL      0.063636
     30 H10        -1.0840    0.2960    3.9520 hc        1 MOL      0.051794
     31 H11         0.1040    0.6030    4.9720 hc        1 MOL      0.051794
     32 H12         1.2350   -1.7650    4.3230 hc        1 MOL      0.008409
     33 H13        -0.3640   -1.9450    3.6020 hc        1 MOL      0.008409
     34 H14        -0.0420   -1.2240    6.4550 hc        1 MOL      0.083308
     35 H15        -0.1580   -2.9490    5.9270 hc        1 MOL      0.083308
     36 H16        -2.4520   -2.5050    5.0620 hx        1 MOL      0.080973
     37 H17        -2.2320   -0.7650    5.2690 hx        1 MOL      0.080973
     38 H18        -2.3830   -0.9530    7.6360 hn        1 MOL      0.370741
     39 H19        -3.6600   -1.5900    6.9310 hn        1 MOL      0.370741
     40 H20        -2.5070   -2.5870    7.5650 hn        1 MOL      0.370741
     41 N4         -0.7730    1.9120    1.2290 n         1 MOL     -0.177777
     42 C13        -1.5000    0.8370    0.5120 c3        1 MOL     -0.032790
     43 C14        -2.0660   -0.4800    1.2480 c         1 MOL     -0.072939
     44 O6         -1.4700   -1.5160    1.0840 o         1 MOL     -0.389402
     45 C15        -0.9370    0.6630   -0.8870 c3        1 MOL      0.084090
     46 C16        -0.7020    1.9890   -1.5450 c         1 MOL      0.487830
     47 O7         -1.4650    3.0380   -1.4010 o         1 MOL     -0.730209
     48 O8          0.2300    2.0070   -2.3850 o         1 MOL     -0.730209
     49 H21        -1.1440    2.7980    0.9000 hn        1 MOL      0.186520
     50 H22        -2.4150    1.3160    0.1640 h1        1 MOL      0.097552
     51 H23        -1.6830    0.1100   -1.4730 hc        1 MOL      0.035378
     52 H24        -0.0260    0.0890   -0.7490 hc        1 MOL      0.035378
     53 N5         -3.1320   -0.4530    2.0080 n         1 MOL      0.025174
     54 C17        -4.0930    0.6290    2.1430 c3        1 MOL     -0.123573
     55 C18        -4.9440    0.4960    3.4690 c         1 MOL      0.512236
     56 O9         -4.5080   -0.1950    4.3850 o         1 MOL     -0.627432
     57 H25        -3.3060   -1.3190    2.5140 hn        1 MOL      0.212559
     58 H26        -4.7670    0.6230    1.2890 h1        1 MOL      0.064056
     59 H27        -3.5610    1.5820    2.1020 h1        1 MOL      0.064056
     60 N6         -6.1090    1.1940    3.6310 n         1 MOL     -0.270806
     61 C19        -6.6770    2.2850    2.7900 c3        1 MOL     -0.196571
     62 C20        -7.0980    1.8970    1.3160 c         1 MOL      0.639162
     63 O10        -7.5220    0.7310    1.1900 o         1 MOL     -0.510619
     64 C21        -7.9410    2.8660    3.5390 c3        1 MOL     -0.113049
     65 C22        -8.9670    1.8280    4.1070 c         1 MOL      0.691705
     66 O11       -10.2080    2.0460    3.8700 o         1 MOL     -0.684368
     67 O12        -8.5780    0.9330    4.8840 o         1 MOL     -0.684368
     68 H28        -6.5270    1.0540    4.5400 hn        1 MOL      0.259093
     69 H29        -6.0280    3.1540    2.8380 h1        1 MOL      0.062550
     70 H30        -8.5030    3.4760    2.8270 hc        1 MOL      0.027629
     71 H31        -7.6900    3.4630    4.4220 hc        1 MOL      0.027629
     72 N7         -6.9180    2.6810    0.2480 n         1 MOL     -0.315768
     73 C23        -7.6560    2.4670   -0.9770 c3        1 MOL     -0.171496
     74 C24        -7.2840    1.2500   -1.8500 c         1 MOL      0.392170
     75 O13        -8.0620    0.7240   -2.7050 o         1 MOL     -0.496537
     76 H32        -6.3890    3.5130    0.4600 hn        1 MOL      0.221000
     77 H33        -7.5640    3.3600   -1.5990 h1        1 MOL      0.131223
     78 H34        -8.7140    2.4400   -0.7270 h1        1 MOL      0.131223
     79 N8         -6.0100    0.7610   -1.7400 n         1 MOL     -0.116389
     80 C25        -5.4440   -0.3790   -2.6490 c3        1 MOL     -0.148608
     81 C26        -4.5430   -1.2930   -1.8370 c         1 MOL      0.270569
     82 O14        -3.7670   -0.7220   -1.0460 o         1 MOL     -0.277666
     83 C27        -4.7010    0.2980   -3.7650 c3        1 MOL      0.373902
     84 C28        -3.6730    1.4130   -3.4060 c3        1 MOL     -0.441330
     85 O15        -5.7180    0.7600   -4.6070 oh        1 MOL     -0.602014
     86 H35        -5.3420    1.2370   -1.1610 hn        1 MOL      0.139657
     87 H36        -6.1970   -0.9770   -3.1610 h1        1 MOL      0.150485
     88 H37        -4.1630   -0.3960   -4.4110 h1        1 MOL     -0.020614
     89 H38        -5.2770    1.1150   -5.3910 ho        1 MOL      0.391747
     90 H39        -3.0150    1.5810   -4.2610 hc        1 MOL      0.112166
     91 H40        -4.2570    2.2840   -3.0980 hc        1 MOL      0.112166
     92 H41        -3.1060    1.0220   -2.5640 hc        1 MOL      0.112166
     93 N9         -4.5830   -2.6380   -2.0090 n         1 MOL     -0.252033
     94 C29        -3.8100   -3.6190   -1.1910 c3        1 MOL     -0.045191
     95 C30        -2.3990   -3.9920   -1.6660 c         1 MOL      0.357782
     96 O16        -1.7450   -4.8270   -1.0760 o         1 MOL     -0.508620
     97 C31        -4.6500   -4.8950   -1.0150 c3        1 MOL      0.183821
     98 C32        -5.1950   -5.6610   -2.2710 c3        1 MOL     -0.015889
     99 C33        -5.7780   -4.6170    0.0260 c3        1 MOL     -0.282868
    100 C34        -4.1190   -6.3900   -3.0420 c3        1 MOL     -0.004060
    101 H42        -5.3010   -2.9510   -2.6430 hn        1 MOL      0.253450
    102 H43        -3.6280   -3.2270   -0.1880 h1        1 MOL      0.105887
    103 H44        -4.0260   -5.6220   -0.5020 hc        1 MOL      0.023424
    104 H45        -5.7870   -4.9680   -2.8620 hc        1 MOL      0.000422
    105 H46        -5.9330   -6.3980   -1.9600 hc        1 MOL      0.000422
    106 H47        -6.6190   -4.1210   -0.4660 hc        1 MOL      0.067949
    107 H48        -6.1320   -5.5790    0.3890 hc        1 MOL      0.067949
    108 H49        -5.4280   -3.9290    0.8020 hc        1 MOL      0.067949
    109 H50        -4.4170   -6.8020   -4.0080 hc        1 MOL      0.008011
    110 H51        -3.4430   -5.5960   -3.3740 hc        1 MOL      0.008011
    111 H52        -3.6280   -7.1980   -2.4880 hc        1 MOL      0.008011
    112 N10        -1.8920   -3.4400   -2.7730 n         1 MOL     -0.103676
    113 C35        -0.6680   -3.7910   -3.4130 c3        1 MOL     -0.209313
    114 C36         0.6900   -3.5860   -2.5890 c         1 MOL      0.383160
    115 O17         1.7430   -4.1980   -2.9270 o         1 MOL     -0.522839
    116 C37        -0.5310   -3.0340   -4.7500 c3        1 MOL      0.171138
    117 C38        -0.5990   -1.4570   -4.5620 c3        1 MOL     -0.125197
    118 O18        -1.5850   -3.2990   -5.6660 oh        1 MOL     -0.610931
    119 H53        -2.4470   -2.7010   -3.1760 hn        1 MOL      0.133409
    120 H54        -0.7010   -4.8540   -3.6280 h1        1 MOL      0.135400
    121 H55         0.3900   -3.2460   -5.2810 h1        1 MOL      0.085719
    122 H56        -1.2590   -3.9420   -6.3000 ho        1 MOL      0.402606
    123 H57        -0.3520   -0.9360   -5.4820 hc        1 MOL      0.051069
    124 H58        -1.5860   -1.1410   -4.2100 hc        1 MOL      0.051069
    125 H59         0.0640   -1.1380   -3.7530 hc        1 MOL      0.051069
    126 N11         0.6460   -2.7670   -1.4730 n         1 MOL     -0.011352
    127 C39         1.7890   -2.4100   -0.6540 c3        1 MOL     -0.025616
    128 C40         2.9030   -1.7380   -1.4390 c         1 MOL      0.454438
    129 O19         2.6310   -1.3000   -2.5230 o         1 MOL     -0.520458
    130 C41         2.2400   -3.6350    0.1650 c3        1 MOL      0.317749
    131 C42         1.0440   -4.3910    0.6640 c3        1 MOL     -0.139584
    132 O20         3.0320   -3.1450    1.1660 oh        1 MOL     -0.637264
    133 H60        -0.2350   -2.3700   -1.1760 hn        1 MOL      0.110652
    134 H61         1.4640   -1.6530    0.0560 h1        1 MOL      0.115713
    135 H62         2.8390   -4.2910   -0.4650 h1        1 MOL     -0.015599
    136 H63         2.6730   -3.3820    2.0270 ho        1 MOL      0.394893
    137 H64         0.3110   -3.6350    0.9770 hc        1 MOL      0.025763
    138 H65         0.5920   -5.0230   -0.1020 hc        1 MOL      0.025763
    139 H66         1.2730   -5.0450    1.5050 hc        1 MOL      0.025763
    140 N12         4.1370   -1.6440   -0.9390 n         1 MOL     -0.312644
    141 C43         5.3480   -1.1880   -1.6770 c3        1 MOL     -0.034502
    142 C44         5.3690    0.3590   -1.8990 c         1 MOL      0.424307
    143 O21         6.0820    0.9060   -2.7640 o         1 MOL     -0.560684
    144 C45         6.6710   -1.6480   -1.1000 c3        1 MOL     -0.087681
    145 C46         6.7950   -3.1490   -1.0050 c3        1 MOL     -0.212166
    146 C47         8.1210   -3.5280   -0.2530 c3        1 MOL      0.029348
    147 C48         8.2890   -4.9450    0.1420 c3        1 MOL     -0.116993
    148 N13         8.4130   -5.8570   -1.0320 n4        1 MOL     -0.253287
    149 H67         4.2420   -2.0350   -0.0070 hn        1 MOL      0.269917
    150 H68         5.2760   -1.5440   -2.7060 h1        1 MOL      0.084960
    151 H69         6.7760   -1.2770   -0.0740 hc        1 MOL      0.090980
    152 H70         7.4170   -1.2070   -1.7660 hc        1 MOL      0.090980
    153 H71         6.7290   -3.5800   -1.9990 hc        1 MOL      0.067477
    154 H72         5.9730   -3.5300   -0.3910 hc        1 MOL      0.067477
    155 H73         8.2610   -2.8860    0.6160 hc        1 MOL      0.053967
    156 H74         8.9760   -3.1700   -0.8180 hc        1 MOL      0.053967
    157 H75         7.4440   -5.2560    0.7550 hx        1 MOL      0.134668
    158 H76         9.1980   -5.0170    0.7300 hx        1 MOL      0.134668
    159 H77         7.6470   -5.8640   -1.6840 hn        1 MOL      0.292440
    160 H78         9.2510   -5.6980   -1.5830 hn        1 MOL      0.292440
    161 H79         8.4750   -6.8300   -0.7690 hn        1 MOL      0.292440
    162 N14         4.6180    1.0470   -1.0040 n         1 MOL     -0.005866
    163 C49         4.6660    2.5190   -1.0740 c3        1 MOL     -0.414923
    164 C50         6.0720    2.9990   -0.6720 c         1 MOL      0.573188
    165 O22         6.7200    2.4170    0.2440 o         1 MOL     -0.548534
    166 C51         3.6790    3.1680   -0.1630 c3        1 MOL      0.207466
    167 C52         3.6370    4.6910   -0.0660 c3        1 MOL     -1.124795
    168 C53         3.5410    5.4530   -1.4100 c         1 MOL      1.073415
    169 O23         4.6020    5.6980   -2.0120 o         1 MOL     -0.801523
    170 O24         2.4090    5.6760   -1.8990 o         1 MOL     -0.801523
    171 H80         4.0480    0.5480   -0.3420 hn        1 MOL      0.076396
    172 H81         4.5090    2.8660   -2.0970 h1        1 MOL      0.174693
    173 H82         3.8760    2.7350    0.8220 hc        1 MOL      0.088916
    174 H83         2.7330    2.7800   -0.5320 hc        1 MOL      0.088916
    175 H84         4.5390    4.9900    0.4730 hc        1 MOL      0.293472
    176 H85         2.7790    4.8360    0.5910 hc        1 MOL      0.293472
    177 N15         6.6240    3.9860   -1.3550 n         1 MOL     -0.340959
    178 C54         8.0100    4.5010   -1.2960 c3        1 MOL     -0.069810
    179 H86         8.0280    5.5350   -1.6430 h1        1 MOL      0.059062
    180 H87         8.3720    4.4560   -0.2690 h1        1 MOL      0.059062
    181 H88         8.6510    3.8930   -1.9360 h1        1 MOL      0.059062
    182 H89         6.0120    4.4820   -1.9900 hn        1 MOL      0.391501
    183 Ca1         0.0420    4.7380   -2.7580 Ca        1 MOL      1.686156
    184 O25         2.0200    4.3200   -4.9140 oh        1 MOL     -0.788162
    185 H90         1.4020    4.6160   -5.5810 ho        1 MOL      0.400255
    186 H91         2.0060    3.3650   -4.9820 ho        1 MOL      0.400255
    187 O26        -0.7410    3.1370   -4.7410 oh        1 MOL     -0.788162
    188 H92        -0.4390    2.2460   -4.5510 ho        1 MOL      0.400255
    189 H93        -0.8980    3.1280   -5.6870 ho        1 MOL      0.400255
    190 O27         0.4160    7.1690   -4.0040 oh        1 MOL     -0.788162
    191 H94        -0.0930    7.9740   -3.9740 ho        1 MOL      0.400255
    192 H95         1.3220    7.4490   -3.8830 ho        1 MOL      0.400255
@<TRIPOS>BOND
     1    1    2 1   
     2    1    4 1   
     3    1    5 1   
     4    1    6 1   
     5    2    3 2   
     6    2    7 1   
     7    7    8 1   
     8    7   15 1   
     9    8    9 1   
    10    8   11 1   
    11    8   16 1   
    12    9   10 2   
    13    9   19 1   
    14   11   12 1   
    15   11   17 1   
    16   11   18 1   
    17   12   13 1   
    18   12   14 1   
    19   19   20 1   
    20   19   28 1   
    21   20   21 1   
    22   20   23 1   
    23   20   29 1   
    24   21   22 2   
    25   21   41 1   
    26   23   24 1   
    27   23   30 1   
    28   23   31 1   
    29   24   25 1   
    30   24   32 1   
    31   24   33 1   
    32   25   26 1   
    33   25   34 1   
    34   25   35 1   
    35   26   27 1   
    36   26   36 1   
    37   26   37 1   
    38   27   38 1   
    39   27   39 1   
    40   27   40 1   
    41   41   42 1   
    42   41   49 1   
    43   42   43 1   
    44   42   45 1   
    45   42   50 1   
    46   43   44 2   
    47   43   53 1   
    48   45   46 1   
    49   45   51 1   
    50   45   52 1   
    51   46   47 1   
    52   46   48 1   
    53   53   54 1   
    54   53   57 1   
    55   54   55 1   
    56   54   58 1   
    57   54   59 1   
    58   55   56 2   
    59   55   60 1   
    60   60   61 1   
    61   60   68 1   
    62   61   62 1   
    63   61   64 1   
    64   61   69 1   
    65   62   63 2   
    66   62   72 1   
    67   64   65 1   
    68   64   70 1   
    69   64   71 1   
    70   65   66 1   
    71   65   67 1   
    72   72   73 1   
    73   72   76 1   
    74   73   74 1   
    75   73   77 1   
    76   73   78 1   
    77   74   75 2   
    78   74   79 1   
    79   79   80 1   
    80   79   86 1   
    81   80   81 1   
    82   80   83 1   
    83   80   87 1   
    84   81   82 2   
    85   81   93 1   
    86   83   84 1   
    87   83   85 1   
    88   83   88 1   
    89   84   90 1   
    90   84   91 1   
    91   84   92 1   
    92   85   89 1   
    93   93   94 1   
    94   93  101 1   
    95   94   95 1   
    96   94   97 1   
    97   94  102 1   
    98   95   96 2   
    99   95  112 1   
   100   97   98 1   
   101   97   99 1   
   102   97  103 1   
   103   98  100 1   
   104   98  104 1   
   105   98  105 1   
   106   99  106 1   
   107   99  107 1   
   108   99  108 1   
   109  100  109 1   
   110  100  110 1   
   111  100  111 1   
   112  112  113 1   
   113  112  119 1   
   114  113  114 1   
   115  113  116 1   
   116  113  120 1   
   117  114  115 2   
   118  114  126 1   
   119  116  117 1   
   120  116  118 1   
   121  116  121 1   
   122  117  123 1   
   123  117  124 1   
   124  117  125 1   
   125  118  122 1   
   126  126  127 1   
   127  126  133 1   
   128  127  128 1   
   129  127  130 1   
   130  127  134 1   
   131  128  129 2   
   132  128  140 1   
   133  130  131 1   
   134  130  132 1   
   135  130  135 1   
   136  131  137 1   
   137  131  138 1   
   138  131  139 1   
   139  132  136 1   
   140  140  141 1   
   141  140  149 1   
   142  141  142 1   
   143  141  144 1   
   144  141  150 1   
   145  142  143 2   
   146  142  162 1   
   147  144  145 1   
   148  144  151 1   
   149  144  152 1   
   150  145  146 1   
   151  145  153 1   
   152  145  154 1   
   153  146  147 1   
   154  146  155 1   
   155  146  156 1   
   156  147  148 1   
   157  147  157 1   
   158  147  158 1   
   159  148  159 1   
   160  148  160 1   
   161  148  161 1   
   162  162  163 1   
   163  162  171 1   
   164  163  164 1   
   165  163  166 1   
   166  163  172 1   
   167  164  165 2   
   168  164  177 1   
   169  166  167 1   
   170  166  173 1   
   171  166  174 1   
   172  167  168 1   
   173  167  175 1   
   174  167  176 1   
   175  168  169 1   
   176  168  170 1   
   177  177  178 1   
   178  177  182 1   
   179  178  179 1   
   180  178  180 1   
   181  178  181 1   
   182  184  185 1   
   183  184  186 1   
   184  187  188 1   
   185  187  189 1   
   186  190  191 1   
   187  190  192 1   
@<TRIPOS>SUBSTRUCTURE
     1 MOL         1 TEMP              0 ****  ****    0 ROOT
