@<TRIPOS>MOLECULE
MOL
  181   177     1     0     0
SMALL
resp


@<TRIPOS>ATOM
      1 C1         -1.0950    6.8450    2.0370 c3        1 MOL     -0.386720
      2 C2         -2.4760    6.3380    1.5650 c         1 MOL      0.668666
      3 O1         -2.7810    6.6110    0.4140 o         1 MOL     -0.561835
      4 H1         -0.6270    7.4190    1.2380 hc        1 MOL      0.092344
      5 H2         -1.2210    7.4800    2.9150 hc        1 MOL      0.092344
      6 H3         -0.4620    5.9950    2.2920 hc        1 MOL      0.092344
      7 N1         -3.2400    5.5820    2.3500 n         1 MOL     -0.519235
      8 C3         -4.6210    5.2690    1.9610 c3        1 MOL      0.143495
      9 C4         -4.6230    4.1740    0.9390 c         1 MOL      0.576649
     10 O2         -3.5910    3.4770    0.7800 o         1 MOL     -0.616775
     11 C5         -5.4820    4.8920    3.1750 c3        1 MOL     -0.235005
     12 C6         -6.9350    4.5760    2.7380 c         1 MOL      0.772176
     13 O3         -7.3040    3.3970    2.7860 o         1 MOL     -0.734665
     14 O4         -7.6970    5.5240    2.4600 o         1 MOL     -0.734665
     15 H4         -2.9070    5.2510    3.2510 hn        1 MOL      0.288091
     16 H5         -4.9570    6.2240    1.5330 h1        1 MOL      0.049116
     17 H6         -5.4380    5.7010    3.9030 hc        1 MOL      0.023973
     18 H7         -5.0200    4.0380    3.6670 hc        1 MOL      0.023973
     19 N2         -5.7020    4.0740    0.0770 n         1 MOL     -0.543995
     20 C7         -5.6220    3.2020   -1.0700 c3        1 MOL      0.352171
     21 C8         -4.6370    3.7340   -2.2360 c         1 MOL      0.453358
     22 O5         -4.2140    4.8560   -2.1830 o         1 MOL     -0.529849
     23 C9         -7.0080    3.0530   -1.6530 c3        1 MOL     -0.187579
     24 H8         -6.3500    4.8380    0.1380 hn        1 MOL      0.297016
     25 H9         -5.2780    2.2490   -0.6870 h1        1 MOL      0.109969
     26 H10        -7.6850    2.7900   -0.8400 hc        1 MOL      0.042306
     27 H11        -7.4540    4.0230   -1.8870 hc        1 MOL      0.042306
     28 H12        -7.0430    2.3570   -2.4960 hc        1 MOL      0.042306
     29 N3         -4.1840    2.9580   -3.2400 n         1 MOL     -0.591915
     30 C10        -4.5560    1.5860   -3.5410 c3        1 MOL      0.154524
     31 C11        -4.2340    0.4830   -2.4880 c         1 MOL      0.333266
     32 O6         -3.4970    0.7560   -1.5560 o         1 MOL     -0.474855
     33 C12        -3.8240    1.0950   -4.8700 c3        1 MOL     -0.488964
     34 C13        -2.3120    1.0250   -4.7360 c         1 MOL      0.772700
     35 O7         -1.5760    0.5550   -5.6150 o         1 MOL     -0.683655
     36 O8         -1.7630    1.5250   -3.7100 o         1 MOL     -0.683655
     37 H13        -3.7200    3.4950   -3.9560 hn        1 MOL      0.370321
     38 H14        -5.6240    1.4480   -3.6970 h1        1 MOL      0.049070
     39 H15        -4.0790    1.8120   -5.6410 hc        1 MOL      0.118773
     40 H16        -4.1580    0.0780   -5.0620 hc        1 MOL      0.118773
     41 N4         -4.9700   -0.6550   -2.5440 n         1 MOL     -0.232750
     42 C14        -5.0620   -1.6300   -1.4550 c3        1 MOL     -0.171031
     43 C15        -6.1730   -1.2470   -0.4710 c         1 MOL      0.746266
     44 O9         -6.6460   -0.1170   -0.4450 o         1 MOL     -0.579104
     45 H17        -5.5040   -0.8830   -3.3720 hn        1 MOL      0.226712
     46 H18        -4.1390   -1.5060   -0.8970 h1        1 MOL      0.106323
     47 H19        -5.0810   -2.6170   -1.9190 h1        1 MOL      0.106323
     48 N5         -6.6590   -2.0940    0.4490 n         1 MOL     -0.777294
     49 C16        -6.3450   -3.5470    0.5370 c3        1 MOL      0.134466
     50 C17        -5.8210   -4.0780    1.8720 c         1 MOL      0.542712
     51 O10        -6.0390   -5.2910    2.1670 o         1 MOL     -0.561030
     52 C18        -7.5980   -4.3110    0.0650 c3        1 MOL     -0.136198
     53 C19        -7.9610   -4.1850   -1.4190 c         1 MOL      0.665593
     54 N6         -7.2730   -4.9600   -2.2210 n         1 MOL     -0.784319
     55 O11        -8.8720   -3.4930   -1.7620 o         1 MOL     -0.553128
     56 H20        -7.4760   -1.7240    0.9080 hn        1 MOL      0.407364
     57 H21        -5.5210   -3.8120   -0.1310 h1        1 MOL      0.013191
     58 H22        -8.4280   -3.8630    0.6150 hc        1 MOL      0.050933
     59 H23        -7.5710   -5.3750    0.3010 hc        1 MOL      0.050933
     60 H24        -6.3890   -5.3580   -1.9530 hn        1 MOL      0.357927
     61 H25        -7.5260   -4.9630   -3.1990 hn        1 MOL      0.357927
     62 N7         -5.1750   -3.3340    2.6680 n         1 MOL     -0.335927
     63 C20        -4.5010   -3.8160    3.8650 c3        1 MOL     -0.092800
     64 C21        -3.1510   -4.4750    3.5300 c         1 MOL      0.523083
     65 O12        -2.7890   -5.4330    4.2300 o         1 MOL     -0.525812
     66 H26        -5.0500   -2.3960    2.3170 hn        1 MOL      0.287659
     67 H27        -5.1700   -4.4660    4.4120 h1        1 MOL      0.097521
     68 H28        -4.2410   -2.9280    4.4460 h1        1 MOL      0.097521
     69 N8         -2.4810   -4.0520    2.4150 n         1 MOL     -0.311269
     70 C22        -1.3560   -4.7130    1.8090 c3        1 MOL     -0.111779
     71 C23        -0.2220   -3.7590    1.3960 c         1 MOL      0.492773
     72 O13        -0.5390   -2.5740    1.2640 o         1 MOL     -0.542865
     73 C24        -1.8520   -5.5870    0.6060 c3        1 MOL      0.283818
     74 C25        -2.6680   -6.7270    1.0720 c3        1 MOL     -0.460055
     75 O14        -2.7540   -4.7380   -0.1690 oh        1 MOL     -0.592107
     76 H29        -2.7860   -3.1650    2.0290 hn        1 MOL      0.244183
     77 H30        -0.9510   -5.4240    2.5230 h1        1 MOL      0.092235
     78 H31        -1.0290   -5.8580   -0.0490 h1        1 MOL      0.046829
     79 H32        -2.2170   -4.4330   -0.9070 ho        1 MOL      0.367939
     80 H33        -3.4920   -6.3550    1.6840 hc        1 MOL      0.135553
     81 H34        -3.0730   -7.3060    0.2380 hc        1 MOL      0.135553
     82 H35        -2.2500   -7.5160    1.6960 hc        1 MOL      0.135553
     83 N9          0.9920   -4.2370    1.3190 n         1 MOL     -0.292211
     84 C26         2.1880   -3.3640    1.0280 c3        1 MOL     -0.227338
     85 C27         2.6690   -3.4970   -0.4220 c         1 MOL      0.365531
     86 O15         2.8610   -4.5920   -0.9780 o         1 MOL     -0.534070
     87 C28         3.3660   -3.7550    1.9420 c3        1 MOL      0.346742
     88 C29         4.6400   -2.9090    1.6800 c3        1 MOL      0.015014
     89 C30         2.9340   -3.7370    3.4390 c3        1 MOL     -0.340986
     90 C31         5.8280   -3.4770    2.5170 c3        1 MOL     -0.358899
     91 H36         1.2070   -5.2180    1.4620 hn        1 MOL      0.251962
     92 H37         1.8990   -2.3150    1.1090 h1        1 MOL      0.305781
     93 H38         3.6710   -4.7580    1.6370 hc        1 MOL     -0.034559
     94 H39         4.5000   -1.8650    1.9660 hc        1 MOL      0.046510
     95 H40         4.9740   -2.9270    0.6370 hc        1 MOL      0.046510
     96 H41         2.9250   -2.6950    3.7720 hc        1 MOL      0.066316
     97 H42         1.9360   -4.1370    3.5770 hc        1 MOL      0.066316
     98 H43         3.6410   -4.2740    4.0750 hc        1 MOL      0.066316
     99 H44         5.6050   -3.2700    3.5670 hc        1 MOL      0.076191
    100 H45         5.8690   -4.5540    2.4360 hc        1 MOL      0.076191
    101 H46         6.8140   -3.2000    2.1630 hc        1 MOL      0.076191
    102 N10         2.9000   -2.3760   -1.1630 n         1 MOL     -0.056654
    103 C32         3.5780   -2.2180   -2.4580 c3        1 MOL      0.009970
    104 C33         5.0730   -1.6990   -2.2830 c         1 MOL      0.255887
    105 O16         5.9620   -2.0940   -3.1000 o         1 MOL     -0.520366
    106 C34         2.6890   -1.1190   -3.1270 c3        1 MOL     -0.076996
    107 C35         1.1850   -1.4760   -3.1320 c         1 MOL      0.710954
    108 O17         0.9160   -2.6190   -3.5390 o         1 MOL     -0.697088
    109 O18         0.3110   -0.6590   -2.8180 o         1 MOL     -0.697088
    110 H47         2.7720   -1.5340   -0.6220 hn        1 MOL     -0.056054
    111 H48         3.3740   -3.1210   -3.0430 h1        1 MOL      0.106267
    112 H49         2.9970   -0.9360   -4.1590 hc        1 MOL      0.022958
    113 H50         2.8570   -0.1530   -2.6540 hc        1 MOL      0.022958
    114 N11         5.4080   -1.0120   -1.2100 n         1 MOL      0.007004
    115 C36         6.6210   -0.2800   -0.9940 c3        1 MOL      0.089079
    116 C37         6.4330    1.0340   -0.1540 c         1 MOL      0.259314
    117 O19         6.9210    1.1720    1.0180 o         1 MOL     -0.501773
    118 C38         7.6360   -1.2960   -0.3660 c3        1 MOL     -0.131780
    119 C39         8.9970   -1.1270   -0.9610 ca        1 MOL      0.011884
    120 C40         9.9570   -0.1690   -0.4170 ca        1 MOL     -0.120216
    121 C41         9.3490   -1.7490   -2.1880 ca        1 MOL     -0.120216
    122 C42        11.2040   -0.0600   -1.0150 ca        1 MOL     -0.155588
    123 C43        10.5870   -1.5090   -2.8640 ca        1 MOL     -0.155588
    124 C44        11.4920   -0.5730   -2.3140 ca        1 MOL     -0.103413
    125 H51         4.6000   -0.6910   -0.7010 hn        1 MOL      0.046279
    126 H52         7.0580   -0.0110   -1.9600 h1        1 MOL      0.074414
    127 H53         7.3990   -2.3230   -0.6590 hc        1 MOL      0.079436
    128 H54         7.7000   -1.1800    0.7220 hc        1 MOL      0.079436
    129 H55         9.7930    0.2610    0.5690 ha        1 MOL      0.123418
    130 H56         8.6890   -2.4410   -2.6830 ha        1 MOL      0.123418
    131 H57        12.0100    0.5010   -0.5620 ha        1 MOL      0.107453
    132 H58        10.7990   -2.0100   -3.7940 ha        1 MOL      0.107453
    133 H59        12.3990   -0.3050   -2.8400 ha        1 MOL      0.094470
    134 N12         5.7420    2.0730   -0.6910 n         1 MOL      0.063141
    135 C45         5.5440    3.3720   -0.0700 c3        1 MOL     -0.250329
    136 C46         4.8850    3.5010    1.3220 c         1 MOL      0.402172
    137 O20         5.0490    4.5720    1.9580 o         1 MOL     -0.494079
    138 C47         4.7490    4.2080   -1.0690 c3        1 MOL      0.100882
    139 C48         4.9960    3.6190   -2.4520 c3        1 MOL     -0.146879
    140 C49         5.1740    2.1280   -2.0320 c3        1 MOL      0.010851
    141 H60         6.5740    3.7310   -0.0870 h1        1 MOL      0.116403
    142 H61         3.7010    4.2210   -0.7920 hc        1 MOL      0.012202
    143 H62         4.9380    5.2790   -1.0030 hc        1 MOL      0.012202
    144 H63         4.1380    3.8080   -3.0980 hc        1 MOL      0.053909
    145 H64         5.9040    4.0310   -2.8900 hc        1 MOL      0.053909
    146 H65         4.2150    1.6180   -2.1180 h1        1 MOL      0.033304
    147 H66         5.8310    1.7420   -2.8110 h1        1 MOL      0.033304
    148 N13         4.3090    2.3980    1.7150 n         1 MOL     -0.158507
    149 C50         3.6830    2.2750    3.0400 c3        1 MOL     -0.053483
    150 C51         4.7850    2.3630    4.0800 c         1 MOL      0.349348
    151 O21         4.8310    3.3880    4.8020 o         1 MOL     -0.500980
    152 C52         3.0430    0.8890    3.2070 c3        1 MOL      0.125944
    153 C53         1.9380    0.4370    2.2440 c3        1 MOL     -0.126463
    154 C54         2.2410    0.4240    0.7540 c         1 MOL      0.495814
    155 O22         1.3370    0.8380    0.0210 o         1 MOL     -0.633688
    156 O23         3.3710    0.0840    0.3510 o         1 MOL     -0.633688
    157 H67         4.3600    1.6110    1.0800 hn        1 MOL      0.252564
    158 H68         2.9970    3.0940    3.2510 h1        1 MOL      0.103333
    159 H69         2.6410    0.8700    4.2180 hc        1 MOL     -0.040807
    160 H70         3.7510    0.0630    3.2510 hc        1 MOL     -0.040807
    161 H71         1.1290    1.1520    2.3670 hc        1 MOL      0.027531
    162 H72         1.5400   -0.5540    2.4560 hc        1 MOL      0.027531
    163 N14         5.8250    1.5140    3.9610 n         1 MOL     -0.058678
    164 C55         6.9670    1.5700    4.8520 c3        1 MOL     -0.442190
    165 H73         7.5210    2.4920    4.6750 h1        1 MOL      0.144263
    166 H74         6.6230    1.5470    5.8860 h1        1 MOL      0.144263
    167 H75         7.6170    0.7150    4.6650 h1        1 MOL      0.144263
    168 H76         5.7220    0.7290    3.3390 hn        1 MOL      0.208242
    169 Ca1        -0.7900    1.1220   -1.4590 Ca        1 MOL      1.763484
    170 O24         1.3500    2.4130   -2.4600 oh        1 MOL     -0.902154
    171 H77         2.0650    2.0130   -1.9670 ho        1 MOL      0.438439
    172 H78         1.6470    3.3120   -2.6110 ho        1 MOL      0.438439
    173 O25        -1.7360   -1.5200   -0.9400 oh        1 MOL     -0.902154
    174 H79        -1.4190   -1.8330   -0.0930 ho        1 MOL      0.438439
    175 H80        -1.6020   -2.2600   -1.5320 ho        1 MOL      0.438439
    176 O26        -1.3730    3.6740   -0.7550 oh        1 MOL     -0.902154
    177 H81        -1.0610    4.5650   -0.9320 ho        1 MOL      0.438439
    178 H82        -2.2310    3.7990   -0.3470 ho        1 MOL      0.438439
    179 O27        -1.7900    1.0740    1.0810 oh        1 MOL     -0.902154
    180 H83        -1.9760    0.4190    1.7630 ho        1 MOL      0.438439
    181 H84        -2.2310    1.8670    1.3710 ho        1 MOL      0.438439
@<TRIPOS>BOND
     1    1    2 1   
     2    1    4 1   
     3    1    5 1   
     4    1    6 1   
     5    2    3 2   
     6    2    7 1   
     7    7    8 1   
     8    7   15 1   
     9    8    9 1   
    10    8   11 1   
    11    8   16 1   
    12    9   10 2   
    13    9   19 1   
    14   11   12 1   
    15   11   17 1   
    16   11   18 1   
    17   12   13 1   
    18   12   14 1   
    19   19   20 1   
    20   19   24 1   
    21   20   21 1   
    22   20   23 1   
    23   20   25 1   
    24   21   22 2   
    25   21   29 1   
    26   23   26 1   
    27   23   27 1   
    28   23   28 1   
    29   29   30 1   
    30   29   37 1   
    31   30   31 1   
    32   30   33 1   
    33   30   38 1   
    34   31   32 2   
    35   31   41 1   
    36   33   34 1   
    37   33   39 1   
    38   33   40 1   
    39   34   35 1   
    40   34   36 1   
    41   41   42 1   
    42   41   45 1   
    43   42   43 1   
    44   42   46 1   
    45   42   47 1   
    46   43   44 2   
    47   43   48 1   
    48   48   49 1   
    49   48   56 1   
    50   49   50 1   
    51   49   52 1   
    52   49   57 1   
    53   50   51 2   
    54   50   62 1   
    55   52   53 1   
    56   52   58 1   
    57   52   59 1   
    58   53   54 1   
    59   53   55 2   
    60   54   60 1   
    61   54   61 1   
    62   62   63 1   
    63   62   66 1   
    64   63   64 1   
    65   63   67 1   
    66   63   68 1   
    67   64   65 2   
    68   64   69 1   
    69   69   70 1   
    70   69   76 1   
    71   70   71 1   
    72   70   73 1   
    73   70   77 1   
    74   71   72 2   
    75   71   83 1   
    76   73   74 1   
    77   73   75 1   
    78   73   78 1   
    79   74   80 1   
    80   74   81 1   
    81   74   82 1   
    82   75   79 1   
    83   83   84 1   
    84   83   91 1   
    85   84   85 1   
    86   84   87 1   
    87   84   92 1   
    88   85   86 2   
    89   85  102 1   
    90   87   88 1   
    91   87   89 1   
    92   87   93 1   
    93   88   90 1   
    94   88   94 1   
    95   88   95 1   
    96   89   96 1   
    97   89   97 1   
    98   89   98 1   
    99   90   99 1   
   100   90  100 1   
   101   90  101 1   
   102  102  103 1   
   103  102  110 1   
   104  103  104 1   
   105  103  106 1   
   106  103  111 1   
   107  104  105 2   
   108  104  114 1   
   109  106  107 1   
   110  106  112 1   
   111  106  113 1   
   112  107  108 1   
   113  107  109 1   
   114  114  115 1   
   115  114  125 1   
   116  115  116 1   
   117  115  118 1   
   118  115  126 1   
   119  116  117 2   
   120  116  134 1   
   121  118  119 1   
   122  118  127 1   
   123  118  128 1   
   124  119  120 ar  
   125  119  121 ar  
   126  120  122 ar  
   127  120  129 1   
   128  121  123 ar  
   129  121  130 1   
   130  122  124 ar  
   131  122  131 1   
   132  123  124 ar  
   133  123  132 1   
   134  124  133 1   
   135  134  135 1   
   136  134  140 1   
   137  135  136 1   
   138  135  138 1   
   139  135  141 1   
   140  136  137 2   
   141  136  148 1   
   142  138  139 1   
   143  138  142 1   
   144  138  143 1   
   145  139  140 1   
   146  139  144 1   
   147  139  145 1   
   148  140  146 1   
   149  140  147 1   
   150  148  149 1   
   151  148  157 1   
   152  149  150 1   
   153  149  152 1   
   154  149  158 1   
   155  150  151 2   
   156  150  163 1   
   157  152  153 1   
   158  152  159 1   
   159  152  160 1   
   160  153  154 1   
   161  153  161 1   
   162  153  162 1   
   163  154  155 1   
   164  154  156 1   
   165  163  164 1   
   166  163  168 1   
   167  164  165 1   
   168  164  166 1   
   169  164  167 1   
   170  170  171 1   
   171  170  172 1   
   172  173  174 1   
   173  173  175 1   
   174  176  177 1   
   175  176  178 1   
   176  179  180 1   
   177  179  181 1   
@<TRIPOS>SUBSTRUCTURE
     1 MOL         1 TEMP              0 ****  ****    0 ROOT
