@<TRIPOS>MOLECULE
MOL
  192   187     1     0     0
SMALL
resp


@<TRIPOS>ATOM
      1 C1          4.5440    4.3610   -2.8930 c3        1 MOL     -0.305885
      2 C2          5.3000    3.4830   -1.9480 c         1 MOL      0.862741
      3 O1          4.7830    3.0710   -0.9520 o         1 MOL     -0.707154
      4 H1          4.9680    4.2660   -3.8930 hc        1 MOL      0.075677
      5 H2          3.4980    4.0570   -2.9130 hc        1 MOL      0.075677
      6 H3          4.6170    5.3970   -2.5640 hc        1 MOL      0.075677
      7 N1          6.4390    2.8770   -2.3710 n         1 MOL     -0.780901
      8 C3          7.1010    1.7420   -1.7630 c3        1 MOL      0.085907
      9 C4          6.1090    0.5840   -1.6750 c         1 MOL      0.272833
     10 O2          5.7390    0.1670   -0.5740 o         1 MOL     -0.271565
     11 C5          8.1060    1.9880   -0.5690 c3        1 MOL      0.046109
     12 C6          7.7750    3.0990    0.4430 c         1 MOL      0.680214
     13 O3          7.0230    2.7460    1.4170 o         1 MOL     -0.715983
     14 O4          8.2340    4.2990    0.3970 o         1 MOL     -0.715983
     15 H4          6.9250    3.2120   -3.1950 hn        1 MOL      0.368835
     16 H5          7.7830    1.3270   -2.5070 h1        1 MOL      0.060644
     17 H6          9.0930    2.2980   -0.8990 hc        1 MOL     -0.024157
     18 H7          8.2050    1.0210   -0.0670 hc        1 MOL     -0.024157
     19 N2          5.5230    0.2200   -2.8670 n         1 MOL     -0.256055
     20 C7          4.7370   -1.0010   -3.1820 c3        1 MOL      0.007111
     21 C8          5.3570   -2.2940   -2.6570 c         1 MOL      0.307185
     22 O5          5.7740   -3.1310   -3.5290 o         1 MOL     -0.552566
     23 C9          3.2540   -0.9330   -2.8190 c3        1 MOL      0.351848
     24 C10         2.4240   -2.0750   -3.3810 c3        1 MOL      0.156333
     25 C11         2.7420    0.4080   -3.3200 c3        1 MOL     -0.143268
     26 C12         2.3590   -2.1960   -4.9560 c3        1 MOL     -0.321294
     27 H8          5.8190    0.7440   -3.6830 hn        1 MOL      0.231258
     28 H9          4.8780   -1.0410   -4.2620 h1        1 MOL      0.041442
     29 H10         3.1410   -0.8470   -1.7410 hc        1 MOL     -0.259457
     30 H11         1.4010   -1.8840   -3.0300 hc        1 MOL      0.007101
     31 H12         2.8090   -3.0170   -2.9950 hc        1 MOL      0.007101
     32 H13         1.6610    0.4610   -3.4190 hc        1 MOL      0.004657
     33 H14         3.0920    1.2410   -2.6970 hc        1 MOL      0.004657
     34 H15         3.0040    0.6410   -4.3480 hc        1 MOL      0.004657
     35 H16         1.7040   -3.0450   -5.1300 hc        1 MOL      0.058867
     36 H17         1.8850   -1.3030   -5.3760 hc        1 MOL      0.058867
     37 H18         3.3260   -2.3830   -5.4290 hc        1 MOL      0.058867
     38 N3          5.5740   -2.4980   -1.3670 n         1 MOL     -0.029473
     39 C13         6.2770   -3.6750   -0.8650 c3        1 MOL     -0.059428
     40 C14         5.3860   -4.9260   -0.8490 c         1 MOL      0.533843
     41 O6          5.8670   -6.0270   -1.0880 o         1 MOL     -0.572736
     42 C15         6.8270   -3.4570    0.5390 c3        1 MOL      0.022756
     43 C16         7.8300   -2.3360    0.6390 c         1 MOL      0.740448
     44 O7          8.6040   -2.2060   -0.2910 o         1 MOL     -0.716685
     45 O8          7.9010   -1.7490    1.6980 o         1 MOL     -0.716685
     46 H19         5.2300   -1.8610   -0.6690 hn        1 MOL      0.063532
     47 H20         7.1140   -3.9580   -1.4900 h1        1 MOL      0.076131
     48 H21         7.4070   -4.3670    0.6940 hc        1 MOL      0.000905
     49 H22         6.0450   -3.3410    1.2830 hc        1 MOL      0.000905
     50 N4          4.0220   -4.9140   -0.7020 n         1 MOL     -0.486453
     51 C17         3.1700   -3.9450   -0.0820 c3        1 MOL      0.193164
     52 C18         2.1890   -4.4590    0.9360 c         1 MOL      0.747040
     53 O9          1.7300   -5.6160    0.7750 o         1 MOL     -0.627323
     54 H23         3.6510   -5.8490   -0.7600 hn        1 MOL      0.277525
     55 H24         2.5500   -3.6600   -0.9230 h1        1 MOL     -0.048269
     56 H25         3.7540   -3.0660    0.1830 h1        1 MOL     -0.048269
     57 N5          1.8120   -3.7100    1.9430 n         1 MOL     -0.578519
     58 C19         2.3410   -2.4320    2.5390 c3        1 MOL      0.299134
     59 C20         2.3720   -1.2710    1.5310 c         1 MOL      0.765185
     60 O10         3.4740   -0.7920    1.2660 o         1 MOL     -0.664232
     61 C21         3.5790   -2.7020    3.4300 c3        1 MOL     -0.803320
     62 C22         3.6550   -4.1150    4.0590 c         1 MOL      0.889711
     63 O11         2.8170   -4.5660    4.8690 o         1 MOL     -0.735921
     64 O12         4.5600   -4.9110    3.7690 o         1 MOL     -0.735921
     65 H26         1.1720   -4.0980    2.6300 hn        1 MOL      0.266916
     66 H27         1.6250   -2.1440    3.3160 h1        1 MOL      0.066113
     67 H28         3.5710   -2.0200    4.2820 hc        1 MOL      0.170546
     68 H29         4.5390   -2.5520    2.9400 hc        1 MOL      0.170546
     69 N6          1.2650   -0.8660    0.9220 n         1 MOL     -0.619532
     70 C23        -0.1380   -1.2280    1.1670 c3        1 MOL     -0.009596
     71 C24        -0.7580   -2.2350    0.2180 c         1 MOL      0.519088
     72 O13        -0.1480   -2.6140   -0.8080 o         1 MOL     -0.524232
     73 H30         1.3710   -0.1690    0.1990 hn        1 MOL      0.440968
     74 H31        -0.6970   -0.3080    0.9740 h1        1 MOL      0.056252
     75 H32        -0.3020   -1.6030    2.1810 h1        1 MOL      0.056252
     76 N7         -2.0040   -2.6560    0.4230 n         1 MOL     -0.420922
     77 C25        -2.6060   -3.7260   -0.4080 c3        1 MOL     -0.059082
     78 C26        -3.1690   -3.2810   -1.7540 c         1 MOL      0.530823
     79 O14        -3.5590   -4.1210   -2.6210 o         1 MOL     -0.555569
     80 C27        -3.5980   -4.6190    0.3910 c3        1 MOL     -0.051498
     81 C28        -4.9640   -4.0370    0.7830 c3        1 MOL     -0.168864
     82 C29        -5.7600   -5.0280    1.5520 c         1 MOL      0.607430
     83 N8         -6.2510   -5.9650    0.8530 n         1 MOL     -0.767778
     84 O15        -5.9610   -4.9450    2.7710 o         1 MOL     -0.562451
     85 H33        -2.3920   -2.3450    1.3040 hn        1 MOL      0.303627
     86 H34        -1.7330   -4.3290   -0.6620 h1        1 MOL      0.137210
     87 H35        -3.0340   -4.8890    1.2950 hc        1 MOL      0.057976
     88 H36        -3.7870   -5.5010   -0.2180 hc        1 MOL      0.057976
     89 H37        -5.4060   -3.7970   -0.1940 hc        1 MOL      0.054594
     90 H38        -4.7680   -3.1170    1.3340 hc        1 MOL      0.054594
     91 H39        -5.9930   -6.0900   -0.1100 hn        1 MOL      0.372432
     92 H40        -6.6300   -6.7330    1.3810 hn        1 MOL      0.372432
     93 N9         -3.2090   -1.9780   -2.0330 n         1 MOL     -0.298735
     94 C30        -3.6870   -1.3900   -3.2810 c3        1 MOL      0.023334
     95 C31        -4.9700   -0.5900   -3.2120 c         1 MOL      0.314126
     96 O16        -5.1160    0.2760   -4.1200 o         1 MOL     -0.502702
     97 C32        -2.5430   -0.5010   -3.9080 c3        1 MOL      0.213272
     98 C33        -1.3320   -1.3780   -4.4210 c3        1 MOL     -0.188555
     99 C34        -2.0080    0.5760   -2.9380 c3        1 MOL     -0.188555
    100 H41        -2.9860   -1.2950   -1.3200 hn        1 MOL      0.160955
    101 H42        -3.8640   -2.1950   -3.9940 h1        1 MOL      0.092682
    102 H43        -2.9290   -0.0620   -4.8280 hc        1 MOL     -0.001459
    103 H44        -0.7330   -1.6530   -3.5460 hc        1 MOL      0.039224
    104 H45        -1.7730   -2.2240   -4.9560 hc        1 MOL      0.039224
    105 H46        -0.6850   -0.8440   -5.1070 hc        1 MOL      0.039224
    106 H47        -2.8540    1.1420   -2.5510 hc        1 MOL      0.039224
    107 H48        -1.6010    0.1460   -2.0190 hc        1 MOL      0.039224
    108 H49        -1.3950    1.3380   -3.4080 hc        1 MOL      0.039224
    109 N10        -5.8290   -0.7840   -2.2230 n         1 MOL     -0.199822
    110 C35        -7.0090    0.0820   -2.1070 c3        1 MOL      0.007621
    111 C36        -6.7810    1.3230   -1.2680 c         1 MOL      0.657117
    112 O17        -7.6450    2.1430   -1.3530 o         1 MOL     -0.569570
    113 C37        -8.1720   -0.7870   -1.6130 c3        1 MOL     -0.106830
    114 C38        -8.4830   -1.9620   -2.5480 c         1 MOL      0.670488
    115 N11        -8.5700   -1.7540   -3.8540 n         1 MOL     -0.850248
    116 O18        -8.7180   -3.0790   -2.0980 o         1 MOL     -0.567628
    117 H50        -5.7800   -1.6030   -1.6300 hn        1 MOL      0.181861
    118 H51        -7.2860    0.4420   -3.0960 h1        1 MOL      0.031384
    119 H52        -9.1110   -0.2370   -1.5780 hc        1 MOL      0.032375
    120 H53        -8.0360   -1.2540   -0.6420 hc        1 MOL      0.032375
    121 H54        -8.4380   -0.8300   -4.2310 hn        1 MOL      0.386502
    122 H55        -8.7440   -2.5290   -4.4810 hn        1 MOL      0.386502
    123 N12        -5.7470    1.3890   -0.4020 n         1 MOL     -0.545284
    124 C39        -5.5420    2.3210    0.6870 c3        1 MOL      0.329559
    125 C40        -4.1920    2.9520    0.7770 c         1 MOL      0.429835
    126 O19        -3.2060    2.4130    0.2490 o         1 MOL     -0.484750
    127 C41        -5.9490    1.8190    2.0820 c3        1 MOL     -0.107186
    128 C42        -6.9850    0.7550    2.0930 ca        1 MOL     -0.030936
    129 C43        -8.3210    1.1260    2.1160 ca        1 MOL     -0.090962
    130 C44        -6.6860   -0.5870    1.9690 ca        1 MOL     -0.090962
    131 C45        -9.3570    0.2070    2.0750 ca        1 MOL     -0.275283
    132 C46        -7.7130   -1.5520    2.0480 ca        1 MOL     -0.275283
    133 C47        -9.0400   -1.1310    2.0220 ca        1 MOL      0.430046
    134 O20       -10.0490   -2.0310    2.0780 oh        1 MOL     -0.560483
    135 H56        -5.1140    0.6120   -0.4420 hn        1 MOL      0.237277
    136 H57        -6.1180    3.2240    0.4730 h1        1 MOL     -0.016906
    137 H58        -6.1720    2.7130    2.6610 hc        1 MOL      0.079388
    138 H59        -5.1360    1.2440    2.5280 hc        1 MOL      0.079388
    139 H60        -8.5430    2.1750    2.1990 ha        1 MOL      0.102544
    140 H61        -5.6360   -0.8580    1.9560 ha        1 MOL      0.102544
    141 H62       -10.3750    0.5720    2.0290 ha        1 MOL      0.143947
    142 H63        -7.4910   -2.6120    1.9560 ha        1 MOL      0.143947
    143 H64        -9.7130   -2.8870    1.8000 ho        1 MOL      0.395666
    144 N13        -4.0860    3.9860    1.5510 n         1 MOL     -0.545236
    145 C48        -2.9340    4.7080    1.9980 c3        1 MOL      0.121482
    146 C49        -1.9600    5.3390    0.9960 c         1 MOL      0.469774
    147 O21        -1.4330    6.4130    1.2400 o         1 MOL     -0.548434
    148 C50        -2.2900    3.7760    3.0280 c3        1 MOL      0.072139
    149 C51        -3.1650    3.2170    4.1360 c3        1 MOL     -0.215261
    150 C52        -2.4180    2.3540    5.1760 c         1 MOL      0.700887
    151 O22        -1.9630    1.2360    4.8270 o         1 MOL     -0.716788
    152 O23        -2.3780    2.7680    6.3570 o         1 MOL     -0.716788
    153 H65        -4.9260    4.3210    1.9930 hn        1 MOL      0.327039
    154 H66        -3.2670    5.6220    2.4830 h1        1 MOL      0.029795
    155 H67        -1.4670    4.3150    3.4850 hc        1 MOL      0.023591
    156 H68        -1.8520    3.0270    2.3710 hc        1 MOL      0.023591
    157 H69        -3.9940    2.6420    3.7010 hc        1 MOL     -0.003710
    158 H70        -3.5620    4.1260    4.5980 hc        1 MOL     -0.003710
    159 N14        -1.7440    4.8120   -0.2110 n         1 MOL     -0.368510
    160 C53        -0.5290    5.0260   -0.9950 c3        1 MOL     -0.161182
    161 C54        -0.6640    6.1040   -2.1030 c         1 MOL      0.445409
    162 O24         0.3920    6.4460   -2.6980 o         1 MOL     -0.527790
    163 C55        -0.0960    3.6660   -1.5590 c3        1 MOL      0.027308
    164 C56         0.1860    2.4620   -0.5760 c3        1 MOL      0.120257
    165 C57         1.2490    2.7390    0.5320 c         1 MOL      0.708749
    166 O25         2.2050    1.9640    0.5340 o         1 MOL     -0.709168
    167 O26         1.0530    3.5990    1.4050 o         1 MOL     -0.709168
    168 H71        -2.2010    3.9150   -0.2750 hn        1 MOL      0.211739
    169 H72         0.2370    5.4080   -0.3240 h1        1 MOL      0.206175
    170 H73         0.8380    3.8080   -2.1150 hc        1 MOL      0.013880
    171 H74        -0.8810    3.3420   -2.2550 hc        1 MOL      0.013880
    172 H75         0.3830    1.6030   -1.2290 hc        1 MOL     -0.028951
    173 H76        -0.7400    2.1290   -0.0900 hc        1 MOL     -0.028951
    174 N15        -1.8970    6.6320   -2.3190 n         1 MOL     -0.176756
    175 C58        -2.2590    7.6860   -3.2390 c3        1 MOL     -0.246920
    176 H77        -1.6200    7.6350   -4.1200 h1        1 MOL      0.097498
    177 H78        -3.3000    7.5660   -3.5390 h1        1 MOL      0.097498
    178 H79        -2.1310    8.6530   -2.7530 h1        1 MOL      0.097498
    179 H80        -2.6460    6.2230   -1.7760 hn        1 MOL      0.211056
    180 Ca1         4.5430    1.7640    1.4080 Ca        1 MOL      1.740822
    181 O27         2.3850    1.4710    3.4130 oh        1 MOL     -0.848171
    182 H81         1.9730    2.1560    2.8740 ho        1 MOL      0.402858
    183 H82         1.6450    1.0080    3.8110 ho        1 MOL      0.402858
    184 O28         5.9660   -0.1260    2.5050 oh        1 MOL     -0.848171
    185 H83         6.7400   -0.6310    2.2500 ho        1 MOL      0.402858
    186 H84         5.3880   -0.7810    2.9110 ho        1 MOL      0.402858
    187 O29         3.3650    4.1570    2.2660 oh        1 MOL     -0.848171
    188 H85         2.4330    4.2280    2.0350 ho        1 MOL      0.402858
    189 H86         3.4280    4.5860    3.1190 ho        1 MOL      0.402858
    190 O30         5.4750    2.1910    4.1480 oh        1 MOL     -0.848171
    191 H87         4.7910    1.8970    4.7360 ho        1 MOL      0.402858
    192 H88         6.1060    2.6270    4.7090 ho        1 MOL      0.402858
@<TRIPOS>BOND
     1    1    2 1   
     2    1    4 1   
     3    1    5 1   
     4    1    6 1   
     5    2    3 2   
     6    2    7 1   
     7    7    8 1   
     8    7   15 1   
     9    8    9 1   
    10    8   11 1   
    11    8   16 1   
    12    9   10 2   
    13    9   19 1   
    14   11   12 1   
    15   11   17 1   
    16   11   18 1   
    17   12   13 1   
    18   12   14 1   
    19   19   20 1   
    20   19   27 1   
    21   20   21 1   
    22   20   23 1   
    23   20   28 1   
    24   21   22 2   
    25   21   38 1   
    26   23   24 1   
    27   23   25 1   
    28   23   29 1   
    29   24   26 1   
    30   24   30 1   
    31   24   31 1   
    32   25   32 1   
    33   25   33 1   
    34   25   34 1   
    35   26   35 1   
    36   26   36 1   
    37   26   37 1   
    38   38   39 1   
    39   38   46 1   
    40   39   40 1   
    41   39   42 1   
    42   39   47 1   
    43   40   41 2   
    44   40   50 1   
    45   42   43 1   
    46   42   48 1   
    47   42   49 1   
    48   43   44 1   
    49   43   45 1   
    50   50   51 1   
    51   50   54 1   
    52   51   52 1   
    53   51   55 1   
    54   51   56 1   
    55   52   53 2   
    56   52   57 1   
    57   57   58 1   
    58   57   65 1   
    59   58   59 1   
    60   58   61 1   
    61   58   66 1   
    62   59   60 2   
    63   59   69 1   
    64   61   62 1   
    65   61   67 1   
    66   61   68 1   
    67   62   63 1   
    68   62   64 1   
    69   69   70 1   
    70   69   73 1   
    71   70   71 1   
    72   70   74 1   
    73   70   75 1   
    74   71   72 2   
    75   71   76 1   
    76   76   77 1   
    77   76   85 1   
    78   77   78 1   
    79   77   80 1   
    80   77   86 1   
    81   78   79 2   
    82   78   93 1   
    83   80   81 1   
    84   80   87 1   
    85   80   88 1   
    86   81   82 1   
    87   81   89 1   
    88   81   90 1   
    89   82   83 1   
    90   82   84 2   
    91   83   91 1   
    92   83   92 1   
    93   93   94 1   
    94   93  100 1   
    95   94   95 1   
    96   94   97 1   
    97   94  101 1   
    98   95   96 2   
    99   95  109 1   
   100   97   98 1   
   101   97   99 1   
   102   97  102 1   
   103   98  103 1   
   104   98  104 1   
   105   98  105 1   
   106   99  106 1   
   107   99  107 1   
   108   99  108 1   
   109  109  110 1   
   110  109  117 1   
   111  110  111 1   
   112  110  113 1   
   113  110  118 1   
   114  111  112 2   
   115  111  123 1   
   116  113  114 1   
   117  113  119 1   
   118  113  120 1   
   119  114  115 1   
   120  114  116 2   
   121  115  121 1   
   122  115  122 1   
   123  123  124 1   
   124  123  135 1   
   125  124  125 1   
   126  124  127 1   
   127  124  136 1   
   128  125  126 2   
   129  125  144 1   
   130  127  128 1   
   131  127  137 1   
   132  127  138 1   
   133  128  129 ar  
   134  128  130 ar  
   135  129  131 ar  
   136  129  139 1   
   137  130  132 ar  
   138  130  140 1   
   139  131  133 ar  
   140  131  141 1   
   141  132  133 ar  
   142  132  142 1   
   143  133  134 1   
   144  134  143 1   
   145  144  145 1   
   146  144  153 1   
   147  145  146 1   
   148  145  148 1   
   149  145  154 1   
   150  146  147 2   
   151  146  159 1   
   152  148  149 1   
   153  148  155 1   
   154  148  156 1   
   155  149  150 1   
   156  149  157 1   
   157  149  158 1   
   158  150  151 1   
   159  150  152 1   
   160  159  160 1   
   161  159  168 1   
   162  160  161 1   
   163  160  163 1   
   164  160  169 1   
   165  161  162 2   
   166  161  174 1   
   167  163  164 1   
   168  163  170 1   
   169  163  171 1   
   170  164  165 1   
   171  164  172 1   
   172  164  173 1   
   173  165  166 1   
   174  165  167 1   
   175  174  175 1   
   176  174  179 1   
   177  175  176 1   
   178  175  177 1   
   179  175  178 1   
   180  181  182 1   
   181  181  183 1   
   182  184  185 1   
   183  184  186 1   
   184  187  188 1   
   185  187  189 1   
   186  190  191 1   
   187  190  192 1   
@<TRIPOS>SUBSTRUCTURE
     1 MOL         1 TEMP              0 ****  ****    0 ROOT
