@<TRIPOS>MOLECULE
MOL
  189   185     1     0     0
SMALL
resp


@<TRIPOS>ATOM
      1 C1          5.7070    2.7050    5.6130 c3        1 MOL     -0.272564
      2 C2          5.0860    2.2590    4.2420 c         1 MOL      0.703737
      3 O1          4.4060    3.0620    3.5730 o         1 MOL     -0.582521
      4 H1          5.2180    2.1670    6.4250 hc        1 MOL      0.072569
      5 H2          6.7740    2.4800    5.6200 hc        1 MOL      0.072569
      6 H3          5.5610    3.7770    5.7470 hc        1 MOL      0.072569
      7 N1          5.4410    1.0980    3.7280 n         1 MOL     -0.661107
      8 C3          5.1740    0.6900    2.3520 c3        1 MOL      0.537907
      9 C4          3.6960    0.3820    1.9660 c         1 MOL     -0.113929
     10 O2          3.4400   -0.2400    0.9140 o         1 MOL      0.052382
     11 C5          5.9210   -0.6230    1.9980 c3        1 MOL     -0.015335
     12 C6          7.3320   -0.8290    2.5230 c         1 MOL      0.692799
     13 O3          7.5360   -0.7550    3.7400 o         1 MOL     -0.699828
     14 O4          8.2540   -1.0990    1.7310 o         1 MOL     -0.699828
     15 H4          5.9910    0.4630    4.2770 hn        1 MOL      0.297580
     16 H5          5.6670    1.3370    1.6310 h1        1 MOL      0.024224
     17 H6          5.9880   -0.6430    0.9130 hc        1 MOL     -0.084847
     18 H7          5.3960   -1.5120    2.3720 hc        1 MOL     -0.084847
     19 N2          2.6880    1.0020    2.6550 n         1 MOL     -0.284206
     20 C7          1.2240    0.7170    2.4940 c3        1 MOL      0.291132
     21 C8          0.4340    2.0150    2.0220 c         1 MOL      0.372713
     22 O5          0.7310    3.1080    2.4970 o         1 MOL     -0.480893
     23 C9          0.7130    0.1060    3.8630 c3        1 MOL     -0.200046
     24 C10         1.0790   -1.4230    4.0600 c3        1 MOL      0.116535
     25 C11         0.3890   -2.0090    5.2850 c3        1 MOL     -0.051824
     26 C12         0.8020   -3.4900    5.4880 c3        1 MOL      0.080341
     27 N3          0.7460   -3.9670    6.9240 n4        1 MOL     -0.326542
     28 H8          3.0060    1.6400    3.3690 hn        1 MOL      0.218853
     29 H9          1.0150    0.0130    1.6930 h1        1 MOL     -0.165738
     30 H10        -0.3650    0.2440    3.8140 hc        1 MOL      0.049402
     31 H11         1.0680    0.6930    4.7150 hc        1 MOL      0.049402
     32 H12         2.1400   -1.5190    4.2840 hc        1 MOL     -0.001566
     33 H13         0.8240   -1.9970    3.1580 hc        1 MOL     -0.001566
     34 H14        -0.6990   -1.9130    5.2960 hc        1 MOL      0.036664
     35 H15         0.7800   -1.4400    6.1280 hc        1 MOL      0.036664
     36 H16         1.7970   -3.6780    5.0920 hx        1 MOL      0.077003
     37 H17         0.0960   -4.1110    4.9370 hx        1 MOL      0.077003
     38 H18         1.2490   -3.3630    7.5590 hn        1 MOL      0.313460
     39 H19        -0.2100   -3.8720    7.2320 hn        1 MOL      0.313460
     40 H20         1.0600   -4.9220    7.0480 hn        1 MOL      0.313460
     41 N4         -0.4790    1.9420    1.0750 n         1 MOL     -0.062492
     42 C13        -1.1580    0.8660    0.4230 c3        1 MOL     -0.478421
     43 C14        -1.5740   -0.2530    1.3670 c         1 MOL      0.622561
     44 O6         -1.1280   -1.3830    1.2430 o         1 MOL     -0.507832
     45 C15        -0.4840    0.3850   -0.8640 c3        1 MOL     -0.069961
     46 C16        -0.5300    1.4640   -1.9660 c         1 MOL      0.621617
     47 O7          0.0240    1.1920   -3.0490 o         1 MOL     -0.695412
     48 O8         -0.8800    2.5990   -1.6500 o         1 MOL     -0.695412
     49 H21        -0.8910    2.8060    0.7400 hn        1 MOL      0.088495
     50 H22        -2.1410    1.2530    0.1180 h1        1 MOL      0.142788
     51 H23        -1.0280   -0.4530   -1.3030 hc        1 MOL      0.124502
     52 H24         0.5240    0.0090   -0.6800 hc        1 MOL      0.124502
     53 N5         -2.4390   -0.0010    2.3590 n         1 MOL     -0.418377
     54 C17        -3.4770    1.1290    2.3990 c3        1 MOL      0.012335
     55 C18        -4.8590    0.7280    3.1080 c         1 MOL      0.587006
     56 O9         -4.8520   -0.1370    3.9530 o         1 MOL     -0.553123
     57 H25        -2.5980   -0.8660    2.8680 hn        1 MOL      0.257670
     58 H26        -3.6010    1.5090    1.3800 h1        1 MOL      0.109673
     59 H27        -3.0160    1.9380    2.9540 h1        1 MOL      0.109673
     60 N6         -5.9990    1.3640    2.8070 n         1 MOL     -0.522838
     61 C19        -6.1690    2.5260    2.0590 c3        1 MOL      0.076017
     62 C20        -7.3020    2.2770    0.9550 c         1 MOL      0.512833
     63 O10        -8.0790    1.3550    1.0810 o         1 MOL     -0.469363
     64 C21        -6.4150    3.7260    2.9380 c3        1 MOL     -0.052040
     65 C22        -7.5540    3.5080    3.9890 c         1 MOL      0.654282
     66 O11        -7.3820    2.7230    4.9450 o         1 MOL     -0.627637
     67 O12        -8.6120    4.1590    3.8280 o         1 MOL     -0.627637
     68 H28        -6.7960    0.9660    3.2890 hn        1 MOL      0.349378
     69 H29        -5.2300    2.6840    1.5220 h1        1 MOL     -0.046348
     70 H30        -6.6580    4.5050    2.2090 hc        1 MOL     -0.030452
     71 H31        -5.4620    3.9540    3.4290 hc        1 MOL     -0.030452
     72 N7         -7.1390    2.8830   -0.1780 n         1 MOL     -0.283956
     73 C23        -7.9690    2.4660   -1.3210 c3        1 MOL     -0.264826
     74 C24        -7.5770    1.0550   -1.8830 c         1 MOL      0.550148
     75 O13        -8.4420    0.2820   -2.2770 o         1 MOL     -0.518742
     76 H32        -6.3970    3.5580   -0.2950 hn        1 MOL      0.240666
     77 H33        -7.9010    3.2420   -2.0850 h1        1 MOL      0.134160
     78 H34        -9.0100    2.3040   -1.0170 h1        1 MOL      0.134160
     79 N8         -6.2710    0.8060   -1.9110 n         1 MOL     -0.363898
     80 C25        -5.7580   -0.4880   -2.3510 c3        1 MOL      0.061853
     81 C26        -4.6890   -1.0510   -1.3970 c         1 MOL      0.488434
     82 O14        -4.0130   -0.3430   -0.6860 o         1 MOL     -0.534916
     83 C27        -5.2550   -0.5210   -3.7660 c3        1 MOL      0.386656
     84 C28        -6.1930   -0.0660   -4.8880 c3        1 MOL     -0.329828
     85 O15        -4.8270   -1.8010   -4.0830 oh        1 MOL     -0.628100
     86 H35        -5.5900    1.4890   -1.6170 hn        1 MOL      0.188490
     87 H36        -6.5320   -1.2510   -2.3650 h1        1 MOL      0.090322
     88 H37        -4.3620    0.0910   -3.8740 h1        1 MOL     -0.033536
     89 H38        -4.3430   -1.5660   -4.8740 ho        1 MOL      0.397894
     90 H39        -7.0950   -0.6830   -4.9160 hc        1 MOL      0.078387
     91 H40        -6.3540    0.9590   -4.5650 hc        1 MOL      0.078387
     92 H41        -5.6160   -0.0410   -5.8150 hc        1 MOL      0.078387
     93 N9         -4.6470   -2.3660   -1.2860 n         1 MOL     -0.316011
     94 C29        -4.0300   -3.0370   -0.1430 c3        1 MOL     -0.242269
     95 C30        -2.8220   -3.9720   -0.5020 c         1 MOL      0.427025
     96 O16        -2.4350   -4.8110    0.2590 o         1 MOL     -0.518067
     97 C31        -5.1230   -3.7470    0.7620 c3        1 MOL      0.129956
     98 C32        -5.8080   -4.9830    0.1350 c3        1 MOL      0.103429
     99 C33        -6.2140   -2.7930    1.2120 c3        1 MOL     -0.133893
    100 C34        -6.5940   -5.9940    1.0570 c3        1 MOL     -0.268920
    101 H42        -5.1590   -2.9620   -1.9290 hn        1 MOL      0.282741
    102 H43        -3.5980   -2.3960    0.6240 h1        1 MOL      0.174100
    103 H44        -4.6710   -4.0750    1.7030 hc        1 MOL      0.010180
    104 H45        -5.0340   -5.5720   -0.3590 hc        1 MOL     -0.015384
    105 H46        -6.4130   -4.6200   -0.6880 hc        1 MOL     -0.015384
    106 H47        -5.8510   -1.8280    1.5590 hc        1 MOL      0.037986
    107 H48        -6.9240   -2.6030    0.4000 hc        1 MOL      0.037986
    108 H49        -6.8150   -3.2560    1.9970 hc        1 MOL      0.037986
    109 H50        -7.4580   -5.5070    1.5010 hc        1 MOL      0.070207
    110 H51        -7.0080   -6.8620    0.5430 hc        1 MOL      0.070207
    111 H52        -5.8720   -6.3510    1.7920 hc        1 MOL      0.070207
    112 N10        -2.2230   -3.6970   -1.6400 n         1 MOL     -0.056232
    113 C35        -1.2030   -4.5770   -2.1920 c3        1 MOL     -0.033391
    114 C36         0.1890   -4.5840   -1.5230 c         1 MOL      0.408784
    115 O17         0.9590   -5.5190   -1.7300 o         1 MOL     -0.559801
    116 C37        -1.0000   -4.2870   -3.6730 c3        1 MOL      0.168950
    117 C38        -1.0980   -2.8110   -4.0990 c3        1 MOL     -0.122468
    118 O18        -2.0410   -4.8890   -4.3630 oh        1 MOL     -0.648306
    119 H53        -2.7960   -3.1980   -2.2980 hn        1 MOL      0.166367
    120 H54        -1.5400   -5.6020   -2.0010 h1        1 MOL      0.114907
    121 H55        -0.0560   -4.6340   -4.0670 h1        1 MOL      0.085938
    122 H56        -1.8550   -4.8390   -5.3080 ho        1 MOL      0.410386
    123 H57        -0.9670   -2.8340   -5.1830 hc        1 MOL      0.029568
    124 H58        -2.0110   -2.2680   -3.8780 hc        1 MOL      0.029568
    125 H59        -0.2350   -2.2520   -3.7500 hc        1 MOL      0.029568
    126 N11         0.5170   -3.4960   -0.8180 n         1 MOL     -0.158853
    127 C39         1.8260   -2.9120   -0.4380 c3        1 MOL     -0.079965
    128 C40         2.5680   -2.4100   -1.6530 c         1 MOL      0.486861
    129 O19         2.1340   -2.5390   -2.8040 o         1 MOL     -0.509847
    130 C41         2.4200   -3.9720    0.4950 c3        1 MOL      0.357148
    131 C42         3.3720   -3.3280    1.3530 c3        1 MOL     -0.247796
    132 O20         3.1100   -4.9870   -0.1520 oh        1 MOL     -0.694456
    133 H60        -0.2870   -2.8900   -0.7090 hn        1 MOL      0.035412
    134 H61         1.6700   -2.0440    0.1980 h1        1 MOL      0.124482
    135 H62         1.6380   -4.4250    1.1090 h1        1 MOL     -0.011748
    136 H63         2.5490   -5.3870   -0.8130 ho        1 MOL      0.456349
    137 H64         2.9630   -2.6590    2.1160 hc        1 MOL      0.057022
    138 H65         3.9010   -4.0570    1.9600 hc        1 MOL      0.057022
    139 H66         4.1390   -2.8310    0.7610 hc        1 MOL      0.057022
    140 N12         3.5650   -1.5210   -1.5370 n         1 MOL     -0.472896
    141 C43         4.4090   -0.9910   -2.6600 c3        1 MOL      0.071265
    142 C44         4.8230    0.4480   -2.4850 c         1 MOL      0.419222
    143 O21         5.6790    0.9510   -3.2120 o         1 MOL     -0.609158
    144 C45         5.6280   -1.8260   -2.9820 c3        1 MOL     -0.009522
    145 C46         6.6940   -1.9620   -1.9310 c3        1 MOL     -0.138733
    146 C47         7.8350   -2.8050   -2.4670 c3        1 MOL      0.028458
    147 C48         9.2320   -2.4860   -1.8630 c3        1 MOL      0.008328
    148 N13         9.3380   -2.8080   -0.4040 n4        1 MOL     -0.427420
    149 H67         3.8350   -1.3650   -0.5830 hn        1 MOL      0.292866
    150 H68         3.8180   -1.0120   -3.5750 h1        1 MOL      0.105920
    151 H69         6.0070   -1.4490   -3.9340 hc        1 MOL      0.037628
    152 H70         5.2900   -2.8040   -3.3080 hc        1 MOL      0.037628
    153 H71         6.2410   -2.2140   -0.9730 hc        1 MOL      0.067275
    154 H72         7.1440   -0.9850   -1.7840 hc        1 MOL      0.067275
    155 H73         7.9670   -2.7450   -3.5460 hc        1 MOL      0.016334
    156 H74         7.6720   -3.8620   -2.2750 hc        1 MOL      0.016334
    157 H75         9.3870   -1.4090   -1.8840 hx        1 MOL      0.091368
    158 H76        10.0260   -2.9460   -2.4430 hx        1 MOL      0.091368
    159 H77        10.3340   -2.8900   -0.2330 hn        1 MOL      0.330095
    160 H78         8.9470   -2.0710    0.1620 hn        1 MOL      0.330095
    161 H79         8.7920   -3.6270   -0.1940 hn        1 MOL      0.330095
    162 N14         4.2200    1.1020   -1.5810 n         1 MOL      0.062386
    163 C49         4.2400    2.5970   -1.5320 c3        1 MOL     -0.186203
    164 C50         5.7000    3.1190   -1.2440 c         1 MOL      0.225451
    165 O22         6.3640    2.6140   -0.2840 o         1 MOL     -0.477956
    166 C51         3.1530    3.0190   -0.5920 c3        1 MOL      0.332694
    167 C52         3.1030    4.5290   -0.3050 c3        1 MOL     -0.389696
    168 C53         2.9950    5.2670   -1.6140 c         1 MOL      0.684401
    169 O23         3.9640    5.8970   -2.1620 o         1 MOL     -0.712781
    170 O24         1.8800    5.4100   -2.0520 o         1 MOL     -0.712781
    171 H80         3.6730    0.7110   -0.8240 hn        1 MOL     -0.105100
    172 H81         3.9140    2.9730   -2.5050 h1        1 MOL      0.121783
    173 H82         3.2450    2.3960    0.2980 hc        1 MOL     -0.048418
    174 H83         2.1880    2.7590   -1.0250 hc        1 MOL     -0.048418
    175 H84         4.0180    4.7360    0.2600 hc        1 MOL      0.102096
    176 H85         2.2530    4.7980    0.3260 hc        1 MOL      0.102096
    177 N15         6.1970    4.0540   -2.0160 n         1 MOL     -0.030309
    178 C54         7.5420    4.5270   -1.9810 c3        1 MOL     -0.050521
    179 H86         7.8800    4.7360   -2.9960 h1        1 MOL      0.043457
    180 H87         7.5920    5.4400   -1.3870 h1        1 MOL      0.043457
    181 H88         8.1840    3.7680   -1.5330 h1        1 MOL      0.043457
    182 H89         5.6250    4.3700   -2.7820 hn        1 MOL      0.251317
    183 Ca1        -0.7550    5.0640   -2.3930 Ca        1 MOL      1.632688
    184 O25         0.0090    3.7020   -4.5610 oh        1 MOL     -0.938385
    185 H90         0.0920    2.7500   -4.5040 ho        1 MOL      0.453589
    186 H91        -0.0010    3.8860   -5.4950 ho        1 MOL      0.453589
    187 O26        -2.8330    5.7590   -4.0200 oh        1 MOL     -0.938385
    188 H92        -3.4920    5.0900   -4.1960 ho        1 MOL      0.453589
    189 H93        -3.0450    6.4730   -4.6160 ho        1 MOL      0.453589
@<TRIPOS>BOND
     1    1    2 1   
     2    1    4 1   
     3    1    5 1   
     4    1    6 1   
     5    2    3 2   
     6    2    7 1   
     7    7    8 1   
     8    7   15 1   
     9    8    9 1   
    10    8   11 1   
    11    8   16 1   
    12    9   10 2   
    13    9   19 1   
    14   11   12 1   
    15   11   17 1   
    16   11   18 1   
    17   12   13 1   
    18   12   14 1   
    19   19   20 1   
    20   19   28 1   
    21   20   21 1   
    22   20   23 1   
    23   20   29 1   
    24   21   22 2   
    25   21   41 1   
    26   23   24 1   
    27   23   30 1   
    28   23   31 1   
    29   24   25 1   
    30   24   32 1   
    31   24   33 1   
    32   25   26 1   
    33   25   34 1   
    34   25   35 1   
    35   26   27 1   
    36   26   36 1   
    37   26   37 1   
    38   27   38 1   
    39   27   39 1   
    40   27   40 1   
    41   41   42 1   
    42   41   49 1   
    43   42   43 1   
    44   42   45 1   
    45   42   50 1   
    46   43   44 2   
    47   43   53 1   
    48   45   46 1   
    49   45   51 1   
    50   45   52 1   
    51   46   47 1   
    52   46   48 1   
    53   53   54 1   
    54   53   57 1   
    55   54   55 1   
    56   54   58 1   
    57   54   59 1   
    58   55   56 2   
    59   55   60 1   
    60   60   61 1   
    61   60   68 1   
    62   61   62 1   
    63   61   64 1   
    64   61   69 1   
    65   62   63 2   
    66   62   72 1   
    67   64   65 1   
    68   64   70 1   
    69   64   71 1   
    70   65   66 1   
    71   65   67 1   
    72   72   73 1   
    73   72   76 1   
    74   73   74 1   
    75   73   77 1   
    76   73   78 1   
    77   74   75 2   
    78   74   79 1   
    79   79   80 1   
    80   79   86 1   
    81   80   81 1   
    82   80   83 1   
    83   80   87 1   
    84   81   82 2   
    85   81   93 1   
    86   83   84 1   
    87   83   85 1   
    88   83   88 1   
    89   84   90 1   
    90   84   91 1   
    91   84   92 1   
    92   85   89 1   
    93   93   94 1   
    94   93  101 1   
    95   94   95 1   
    96   94   97 1   
    97   94  102 1   
    98   95   96 2   
    99   95  112 1   
   100   97   98 1   
   101   97   99 1   
   102   97  103 1   
   103   98  100 1   
   104   98  104 1   
   105   98  105 1   
   106   99  106 1   
   107   99  107 1   
   108   99  108 1   
   109  100  109 1   
   110  100  110 1   
   111  100  111 1   
   112  112  113 1   
   113  112  119 1   
   114  113  114 1   
   115  113  116 1   
   116  113  120 1   
   117  114  115 2   
   118  114  126 1   
   119  116  117 1   
   120  116  118 1   
   121  116  121 1   
   122  117  123 1   
   123  117  124 1   
   124  117  125 1   
   125  118  122 1   
   126  126  127 1   
   127  126  133 1   
   128  127  128 1   
   129  127  130 1   
   130  127  134 1   
   131  128  129 2   
   132  128  140 1   
   133  130  131 1   
   134  130  132 1   
   135  130  135 1   
   136  131  137 1   
   137  131  138 1   
   138  131  139 1   
   139  132  136 1   
   140  140  141 1   
   141  140  149 1   
   142  141  142 1   
   143  141  144 1   
   144  141  150 1   
   145  142  143 2   
   146  142  162 1   
   147  144  145 1   
   148  144  151 1   
   149  144  152 1   
   150  145  146 1   
   151  145  153 1   
   152  145  154 1   
   153  146  147 1   
   154  146  155 1   
   155  146  156 1   
   156  147  148 1   
   157  147  157 1   
   158  147  158 1   
   159  148  159 1   
   160  148  160 1   
   161  148  161 1   
   162  162  163 1   
   163  162  171 1   
   164  163  164 1   
   165  163  166 1   
   166  163  172 1   
   167  164  165 2   
   168  164  177 1   
   169  166  167 1   
   170  166  173 1   
   171  166  174 1   
   172  167  168 1   
   173  167  175 1   
   174  167  176 1   
   175  168  169 1   
   176  168  170 1   
   177  177  178 1   
   178  177  182 1   
   179  178  179 1   
   180  178  180 1   
   181  178  181 1   
   182  184  185 1   
   183  184  186 1   
   184  187  188 1   
   185  187  189 1   
@<TRIPOS>SUBSTRUCTURE
     1 MOL         1 TEMP              0 ****  ****    0 ROOT
