@<TRIPOS>MOLECULE
MOL
  186   183     1     0     0
SMALL
resp


@<TRIPOS>ATOM
      1 C1         12.1130    4.1650   -4.7130 c3        1 MOL     -0.307790
      2 C2         11.9170    3.2010   -3.5500 c         1 MOL      0.574515
      3 O1         12.5730    2.1260   -3.5340 o         1 MOL     -0.610695
      4 H1         12.7540    3.7020   -5.4630 hc        1 MOL      0.086046
      5 H2         11.1470    4.3990   -5.1570 hc        1 MOL      0.086046
      6 H3         12.5810    5.0800   -4.3510 hc        1 MOL      0.086046
      7 N1         11.2750    3.5910   -2.4830 n         1 MOL     -0.169771
      8 C3         11.2110    2.7670   -1.2460 c3        1 MOL     -0.194819
      9 C4          9.9490    1.9200   -1.2070 c         1 MOL      0.600166
     10 O2          8.7880    2.3590   -1.4830 o         1 MOL     -0.687432
     11 C5         11.2960    3.6080   -0.0270 c3        1 MOL     -0.411844
     12 C6         10.3840    4.8910    0.0390 c         1 MOL      0.792467
     13 O3          9.6230    4.9820   -0.9590 o         1 MOL     -0.685649
     14 O4         10.3820    5.7760    0.9230 o         1 MOL     -0.685649
     15 H4         10.8030    4.4830   -2.4250 hn        1 MOL      0.158725
     16 H5         12.0760    2.1020   -1.2480 h1        1 MOL      0.142314
     17 H6         12.2820    4.0560    0.0130 hc        1 MOL      0.152226
     18 H7         11.1680    2.9900    0.8670 hc        1 MOL      0.152226
     19 N2         10.0590    0.6190   -0.8760 n         1 MOL     -0.331810
     20 C7          9.0780   -0.4910   -1.1180 c3        1 MOL     -0.192231
     21 C8          7.8950   -0.5350   -0.1140 c         1 MOL      0.705711
     22 O5          7.1590   -1.5490   -0.0650 o         1 MOL     -0.562797
     23 C9          9.7070   -1.8760   -1.2690 c3        1 MOL     -0.279542
     24 C10        10.3660   -2.2590    0.0730 c3        1 MOL      0.163370
     25 C11        11.0580   -3.6290   -0.0280 c3        1 MOL     -0.004186
     26 C12        11.5400   -4.1310    1.3220 c3        1 MOL      0.157295
     27 N3         12.1810   -5.4420    1.2010 n4        1 MOL     -0.346257
     28 H8         10.9890    0.3090   -0.6260 hn        1 MOL      0.268570
     29 H9          8.5550   -0.3090   -2.0480 h1        1 MOL      0.189508
     30 H10        10.5130   -1.7330   -1.9940 hc        1 MOL      0.108900
     31 H11         8.9980   -2.6180   -1.6340 hc        1 MOL      0.108900
     32 H12         9.6670   -2.2110    0.9020 hc        1 MOL     -0.035496
     33 H13        11.1120   -1.4780    0.2060 hc        1 MOL     -0.035496
     34 H14        11.9410   -3.5410   -0.6650 hc        1 MOL      0.016490
     35 H15        10.3760   -4.3950   -0.4030 hc        1 MOL      0.016490
     36 H16        10.7220   -4.1640    2.0480 hx        1 MOL      0.048085
     37 H17        12.2580   -3.4890    1.8270 hx        1 MOL      0.048085
     38 H18        13.0450   -5.4130    0.6860 hn        1 MOL      0.265990
     39 H19        12.4120   -5.7630    2.1410 hn        1 MOL      0.265990
     40 H20        11.5970   -6.1370    0.7630 hn        1 MOL      0.265990
     41 N4          7.7190    0.5010    0.7180 n         1 MOL     -0.256928
     42 C13         6.6040    0.7490    1.6310 c3        1 MOL     -0.054274
     43 C14         5.4600    1.4920    0.8310 c         1 MOL      0.260565
     44 O6          5.7220    2.1150   -0.2380 o         1 MOL     -0.629144
     45 C15         7.0090    1.4670    2.9350 c3        1 MOL     -0.197993
     46 C16         7.9060    2.7110    2.5570 c         1 MOL      0.500046
     47 O7          8.5010    3.3020    3.4740 o         1 MOL     -0.595749
     48 O8          7.9650    3.1710    1.3910 o         1 MOL     -0.595749
     49 H21         8.2610    1.3460    0.6140 hn        1 MOL      0.165070
     50 H22         6.1910   -0.1950    1.9900 h1        1 MOL      0.125592
     51 H23         7.5400    0.7800    3.5830 hc        1 MOL      0.103601
     52 H24         6.1030    1.7280    3.4730 hc        1 MOL      0.103601
     53 N5          4.1870    1.2950    1.1460 n         1 MOL     -0.282412
     54 C17         3.6960    0.4910    2.2650 c3        1 MOL      0.113958
     55 C18         3.7160   -1.0300    2.1700 c         1 MOL      0.481353
     56 O9          3.9790   -1.5680    1.1000 o         1 MOL     -0.471400
     57 H25         3.4960    1.7010    0.5200 hn        1 MOL      0.296462
     58 H26         2.6850    0.8850    2.3140 h1        1 MOL      0.029969
     59 H27         4.1770    0.8480    3.1780 h1        1 MOL      0.029969
     60 N6          3.5940   -1.7430    3.3030 n         1 MOL     -0.388546
     61 C19         3.5380   -3.1880    3.3490 c3        1 MOL      0.052643
     62 C20         2.4090   -3.8070    2.5240 c         1 MOL      0.457093
     63 O10         1.3720   -3.1100    2.3710 o         1 MOL     -0.450662
     64 C21         3.4180   -3.5920    4.8560 c3        1 MOL     -0.078429
     65 C22         2.2740   -3.0080    5.5970 c         1 MOL      0.641388
     66 O11         1.1900   -3.6460    5.5940 o         1 MOL     -0.630435
     67 O12         2.3950   -1.8800    6.0780 o         1 MOL     -0.630435
     68 H28         3.4620   -1.2400    4.1760 hn        1 MOL      0.234276
     69 H29         4.4820   -3.5390    2.9380 h1        1 MOL     -0.004061
     70 H30         4.3250   -3.2710    5.3610 hc        1 MOL     -0.006542
     71 H31         3.2950   -4.6680    4.8870 hc        1 MOL     -0.006542
     72 N7          2.5450   -5.0300    2.0700 n         1 MOL     -0.246406
     73 C23         1.6010   -6.0960    1.6790 c3        1 MOL     -0.184205
     74 C24         0.8270   -5.8140    0.4370 c         1 MOL      0.584531
     75 O13        -0.0460   -6.6450    0.1200 o         1 MOL     -0.567721
     76 H32         3.4320   -5.4830    2.2210 hn        1 MOL      0.218579
     77 H33         0.9270   -6.2540    2.5250 h1        1 MOL      0.119369
     78 H34         2.2270   -6.9710    1.5250 h1        1 MOL      0.119369
     79 N8          1.1240   -4.7480   -0.3660 n         1 MOL     -0.298520
     80 C25         0.3190   -4.3270   -1.5200 c3        1 MOL     -0.071088
     81 C26        -0.1390   -2.8730   -1.3580 c         1 MOL      0.652509
     82 O14         0.6810   -2.0340   -0.9710 o         1 MOL     -0.533517
     83 C27         1.1020   -4.4730   -2.8710 c3        1 MOL      0.516608
     84 C28         2.4800   -3.8450   -2.8940 c3        1 MOL     -0.352966
     85 O15         1.0190   -5.8810   -3.1750 oh        1 MOL     -0.643132
     86 H35         2.0100   -4.2800   -0.2380 hn        1 MOL      0.158167
     87 H36        -0.5510   -4.9770   -1.6300 h1        1 MOL      0.055653
     88 H37         0.5460   -3.8840   -3.5930 h1        1 MOL     -0.097804
     89 H38         0.1070   -6.1210   -3.3240 ho        1 MOL      0.381678
     90 H39         3.1410   -4.3880   -2.2180 hc        1 MOL      0.097861
     91 H40         2.7980   -4.0810   -3.9100 hc        1 MOL      0.097861
     92 H41         2.4210   -2.7830   -2.6690 hc        1 MOL      0.097861
     93 N9         -1.3450   -2.4180   -1.8260 n         1 MOL     -0.612925
     94 C29        -1.8540   -1.0060   -1.6690 c3        1 MOL     -0.040378
     95 C30        -3.2620   -1.1730   -1.0190 c         1 MOL      0.642490
     96 O16        -3.5090   -0.3930   -0.0220 o         1 MOL     -0.559475
     97 C31        -1.8080   -0.2700   -3.0080 c3        1 MOL      0.009917
     98 C32        -0.3560   -0.1790   -3.6060 c3        1 MOL      0.205966
     99 C33        -2.4580    1.0730   -2.9100 c3        1 MOL     -0.336910
    100 C34        -0.3350    0.1150   -5.0870 c3        1 MOL     -0.339118
    101 H42        -1.9530   -3.1650   -2.1310 hn        1 MOL      0.263287
    102 H43        -1.2100   -0.4110   -1.0200 h1        1 MOL      0.158203
    103 H44        -2.4370   -0.8280   -3.6990 hc        1 MOL      0.045672
    104 H45         0.3420   -0.9910   -3.4070 hc        1 MOL      0.007342
    105 H46         0.1690    0.6400   -3.1070 hc        1 MOL      0.007342
    106 H47        -2.3630    1.6340   -3.8360 hc        1 MOL      0.087293
    107 H48        -3.5330    0.8770   -2.8200 hc        1 MOL      0.087293
    108 H49        -1.9950    1.5510   -2.0480 hc        1 MOL      0.087293
    109 H50        -0.8130    1.0790   -5.2630 hc        1 MOL      0.073203
    110 H51         0.7190    0.2440   -5.3540 hc        1 MOL      0.073203
    111 H52        -0.8730   -0.6970   -5.5690 hc        1 MOL      0.073203
    112 N10        -4.1830   -2.1300   -1.2990 n         1 MOL     -0.454815
    113 C35        -5.4980   -2.3420   -0.6810 c3        1 MOL     -0.078130
    114 C36        -6.6080   -2.5000   -1.7140 c         1 MOL      0.627659
    115 O17        -6.3460   -3.1240   -2.7080 o         1 MOL     -0.522741
    116 C37        -5.4410   -3.3280    0.4900 c3        1 MOL      0.355742
    117 C38        -5.1130   -4.6450   -0.0170 c3        1 MOL     -0.339266
    118 O18        -4.4580   -2.9700    1.4860 oh        1 MOL     -0.558318
    119 H53        -4.0360   -2.7430   -2.0850 hn        1 MOL      0.272579
    120 H54        -5.6890   -1.3880   -0.1780 h1        1 MOL      0.055181
    121 H55        -6.3970   -3.3020    1.0150 h1        1 MOL     -0.024636
    122 H56        -4.6600   -2.0810    1.7900 ho        1 MOL      0.398484
    123 H57        -4.0490   -4.6320   -0.2040 hc        1 MOL      0.101171
    124 H58        -5.2340   -5.4890    0.6740 hc        1 MOL      0.101171
    125 H59        -5.6640   -4.9510   -0.9010 hc        1 MOL      0.101171
    126 N11        -7.7850   -1.8780   -1.4820 n         1 MOL     -0.511254
    127 C39        -8.9970   -1.8790   -2.2650 c3        1 MOL      0.003781
    128 C40       -10.0450   -0.7870   -2.0390 c         1 MOL      0.477529
    129 O19       -10.9020   -0.4860   -2.9110 o         1 MOL     -0.524556
    130 C41        -9.6320   -3.2770   -1.9460 c3        1 MOL      0.210630
    131 C42       -10.6330   -3.6480   -3.0800 c3        1 MOL     -0.516612
    132 O20       -10.2660   -3.4030   -0.6550 oh        1 MOL     -0.599626
    133 H60        -7.8770   -1.3580   -0.6200 hn        1 MOL      0.261521
    134 H61        -8.7840   -1.8300   -3.3310 h1        1 MOL      0.133819
    135 H62        -8.8310   -4.0090   -2.0550 h1        1 MOL      0.077619
    136 H63       -10.6040   -4.2990   -0.6910 ho        1 MOL      0.399899
    137 H64       -10.9030   -4.6970   -3.1130 hc        1 MOL      0.142185
    138 H65       -11.5150   -3.0180   -2.9780 hc        1 MOL      0.142185
    139 H66       -10.2320   -3.3540   -4.0510 hc        1 MOL      0.142185
    140 N12       -10.2030   -0.1830   -0.8290 n         1 MOL     -0.245852
    141 C43       -10.9610    1.0760   -0.5170 c3        1 MOL     -0.194920
    142 C44       -10.2980    1.9500    0.5640 c         1 MOL      0.403841
    143 O21        -9.8550    1.4260    1.5930 o         1 MOL     -0.512066
    144 C45       -12.4290    0.7730   -0.1650 c3        1 MOL     -0.151530
    145 C46       -12.5820   -0.3510    0.8910 c3        1 MOL      0.067080
    146 C47       -13.9110   -1.0370    0.9930 c3        1 MOL     -0.060603
    147 C48       -14.9970   -0.1210    1.5570 c3        1 MOL     -0.005707
    148 N13       -16.3040   -0.7810    1.1260 n4        1 MOL     -0.297638
    149 H67        -9.6560   -0.6020   -0.0880 hn        1 MOL      0.286979
    150 H68       -11.1140    1.6690   -1.4200 h1        1 MOL      0.138791
    151 H69       -12.9810    0.3560   -1.0110 hc        1 MOL      0.074455
    152 H70       -12.9520    1.6970    0.0870 hc        1 MOL      0.074455
    153 H71       -12.5660    0.0670    1.9060 hc        1 MOL      0.035628
    154 H72       -11.7900   -1.1010    0.8330 hc        1 MOL      0.035628
    155 H73       -13.7800   -1.7810    1.7770 hc        1 MOL      0.042705
    156 H74       -14.2200   -1.4550    0.0270 hc        1 MOL      0.042705
    157 H75       -14.9060    0.9080    1.2200 hx        1 MOL      0.099003
    158 H76       -14.8570   -0.1570    2.6410 hx        1 MOL      0.099003
    159 H77       -16.4640   -0.7300    0.1280 hn        1 MOL      0.254645
    160 H78       -16.3580   -1.7470    1.4130 hn        1 MOL      0.254645
    161 H79       -17.0380   -0.1540    1.4160 hn        1 MOL      0.254645
    162 N14       -10.3080    3.2180    0.3610 n         1 MOL     -0.322208
    163 C49        -9.7560    4.3080    1.2230 c3        1 MOL      0.262403
    164 C50        -8.2090    4.2350    1.3960 c         1 MOL      0.473026
    165 O22        -7.7570    4.2180    2.5050 o         1 MOL     -0.507920
    166 C51       -10.2840    5.6740    0.7430 c3        1 MOL     -0.099855
    167 C52       -10.0490    6.7280    1.8460 c3        1 MOL     -0.159724
    168 C53       -10.4240    8.0990    1.3120 c         1 MOL      0.742239
    169 O23        -9.5670    8.8520    0.9610 o         1 MOL     -0.652251
    170 O24       -11.6180    8.4250    1.1390 o         1 MOL     -0.652251
    171 H80       -10.9280    3.5800   -0.3580 hn        1 MOL      0.234750
    172 H81       -10.0170    4.0830    2.2520 h1        1 MOL      0.024258
    173 H82       -11.3670    5.5990    0.6310 hc        1 MOL      0.022603
    174 H83        -9.8230    6.0130   -0.1870 hc        1 MOL      0.022603
    175 H84        -9.0300    6.7370    2.2310 hc        1 MOL      0.025789
    176 H85       -10.6480    6.4150    2.7080 hc        1 MOL      0.025789
    177 N15        -7.4040    4.3410    0.2950 n         1 MOL     -0.459439
    178 C54        -7.6660    4.7270   -1.1350 c3        1 MOL      0.048073
    179 H86        -7.0520    4.1140   -1.7940 h1        1 MOL      0.039353
    180 H87        -8.7190    4.5670   -1.3680 h1        1 MOL      0.039353
    181 H88        -7.4170    5.7790   -1.2800 h1        1 MOL      0.039353
    182 H89        -6.4020    4.2920    0.4040 hn        1 MOL      0.306855
    183 Ca1         7.0150    4.3810   -0.6210 Ca        1 MOL      1.781368
    184 O25         7.8370    6.6930    0.2690 oh        1 MOL     -1.042209
    185 H90         7.6760    7.1320    1.0980 ho        1 MOL      0.482515
    186 H91         8.7760    6.5420    0.2570 ho        1 MOL      0.482515
@<TRIPOS>BOND
     1    1    2 1   
     2    1    4 1   
     3    1    5 1   
     4    1    6 1   
     5    2    3 2   
     6    2    7 1   
     7    7    8 1   
     8    7   15 1   
     9    8    9 1   
    10    8   11 1   
    11    8   16 1   
    12    9   10 2   
    13    9   19 1   
    14   11   12 1   
    15   11   17 1   
    16   11   18 1   
    17   12   13 1   
    18   12   14 1   
    19   19   20 1   
    20   19   28 1   
    21   20   21 1   
    22   20   23 1   
    23   20   29 1   
    24   21   22 2   
    25   21   41 1   
    26   23   24 1   
    27   23   30 1   
    28   23   31 1   
    29   24   25 1   
    30   24   32 1   
    31   24   33 1   
    32   25   26 1   
    33   25   34 1   
    34   25   35 1   
    35   26   27 1   
    36   26   36 1   
    37   26   37 1   
    38   27   38 1   
    39   27   39 1   
    40   27   40 1   
    41   41   42 1   
    42   41   49 1   
    43   42   43 1   
    44   42   45 1   
    45   42   50 1   
    46   43   44 2   
    47   43   53 1   
    48   45   46 1   
    49   45   51 1   
    50   45   52 1   
    51   46   47 1   
    52   46   48 1   
    53   53   54 1   
    54   53   57 1   
    55   54   55 1   
    56   54   58 1   
    57   54   59 1   
    58   55   56 2   
    59   55   60 1   
    60   60   61 1   
    61   60   68 1   
    62   61   62 1   
    63   61   64 1   
    64   61   69 1   
    65   62   63 2   
    66   62   72 1   
    67   64   65 1   
    68   64   70 1   
    69   64   71 1   
    70   65   66 1   
    71   65   67 1   
    72   72   73 1   
    73   72   76 1   
    74   73   74 1   
    75   73   77 1   
    76   73   78 1   
    77   74   75 2   
    78   74   79 1   
    79   79   80 1   
    80   79   86 1   
    81   80   81 1   
    82   80   83 1   
    83   80   87 1   
    84   81   82 2   
    85   81   93 1   
    86   83   84 1   
    87   83   85 1   
    88   83   88 1   
    89   84   90 1   
    90   84   91 1   
    91   84   92 1   
    92   85   89 1   
    93   93   94 1   
    94   93  101 1   
    95   94   95 1   
    96   94   97 1   
    97   94  102 1   
    98   95   96 2   
    99   95  112 1   
   100   97   98 1   
   101   97   99 1   
   102   97  103 1   
   103   98  100 1   
   104   98  104 1   
   105   98  105 1   
   106   99  106 1   
   107   99  107 1   
   108   99  108 1   
   109  100  109 1   
   110  100  110 1   
   111  100  111 1   
   112  112  113 1   
   113  112  119 1   
   114  113  114 1   
   115  113  116 1   
   116  113  120 1   
   117  114  115 2   
   118  114  126 1   
   119  116  117 1   
   120  116  118 1   
   121  116  121 1   
   122  117  123 1   
   123  117  124 1   
   124  117  125 1   
   125  118  122 1   
   126  126  127 1   
   127  126  133 1   
   128  127  128 1   
   129  127  130 1   
   130  127  134 1   
   131  128  129 2   
   132  128  140 1   
   133  130  131 1   
   134  130  132 1   
   135  130  135 1   
   136  131  137 1   
   137  131  138 1   
   138  131  139 1   
   139  132  136 1   
   140  140  141 1   
   141  140  149 1   
   142  141  142 1   
   143  141  144 1   
   144  141  150 1   
   145  142  143 2   
   146  142  162 1   
   147  144  145 1   
   148  144  151 1   
   149  144  152 1   
   150  145  146 1   
   151  145  153 1   
   152  145  154 1   
   153  146  147 1   
   154  146  155 1   
   155  146  156 1   
   156  147  148 1   
   157  147  157 1   
   158  147  158 1   
   159  148  159 1   
   160  148  160 1   
   161  148  161 1   
   162  162  163 1   
   163  162  171 1   
   164  163  164 1   
   165  163  166 1   
   166  163  172 1   
   167  164  165 2   
   168  164  177 1   
   169  166  167 1   
   170  166  173 1   
   171  166  174 1   
   172  167  168 1   
   173  167  175 1   
   174  167  176 1   
   175  168  169 1   
   176  168  170 1   
   177  177  178 1   
   178  177  182 1   
   179  178  179 1   
   180  178  180 1   
   181  178  181 1   
   182  184  185 1   
   183  184  186 1   
@<TRIPOS>SUBSTRUCTURE
     1 MOL         1 TEMP              0 ****  ****    0 ROOT
