@<TRIPOS>MOLECULE
MOL
  182   178     1     0     0
SMALL
resp


@<TRIPOS>ATOM
      1 C1          1.2060   -5.3200    5.6960 c3        1 MOL     -0.329129
      2 C2          1.2600   -4.9380    4.2330 c         1 MOL      0.764358
      3 O1          0.5140   -5.4630    3.3550 o         1 MOL     -0.628658
      4 H1          0.5930   -6.2150    5.8150 hc        1 MOL      0.092787
      5 H2          2.2150   -5.5220    6.0570 hc        1 MOL      0.092787
      6 H3          0.7700   -4.5020    6.2700 hc        1 MOL      0.092787
      7 N1          2.1320   -3.9860    3.8480 n         1 MOL     -0.581810
      8 C3          2.3150   -3.5570    2.5060 c3        1 MOL     -0.278984
      9 C4          2.9130   -4.6550    1.5550 c         1 MOL      0.914543
     10 O2          3.5760   -5.5960    1.9780 o         1 MOL     -0.560699
     11 C5          3.2510   -2.3010    2.5130 c3        1 MOL     -0.013977
     12 C6          3.2700   -1.5080    1.2100 c         1 MOL      0.547230
     13 O3          3.9790   -0.4910    1.2230 o         1 MOL     -0.707937
     14 O4          2.6270   -1.7890    0.2280 o         1 MOL     -0.707937
     15 H4          2.7460   -3.5620    4.5330 hn        1 MOL      0.332699
     16 H5          1.3070   -3.2440    2.2210 h1        1 MOL      0.133960
     17 H6          4.2750   -2.5940    2.7030 hc        1 MOL      0.047837
     18 H7          2.9330   -1.6330    3.3270 hc        1 MOL      0.047837
     19 N2          2.5020   -4.5290    0.2730 n         1 MOL     -0.887392
     20 C7          2.8520   -5.5030   -0.8440 c3        1 MOL      0.137356
     21 C8          4.1560   -5.1100   -1.4910 c         1 MOL      0.501976
     22 O5          4.7820   -6.0750   -1.9140 o         1 MOL     -0.550385
     23 C9          1.7440   -5.6160   -1.9180 c3        1 MOL     -0.256919
     24 C10         0.3240   -5.8980   -1.3300 c3        1 MOL      0.167444
     25 C11        -0.5790   -6.4430   -2.4300 c3        1 MOL     -0.052759
     26 C12        -1.8340   -6.9460   -1.6840 c3        1 MOL     -0.124576
     27 N3         -2.6310   -5.8740   -0.9990 n4        1 MOL     -0.176728
     28 H8          1.9600   -3.7060    0.0210 hn        1 MOL      0.449955
     29 H9          2.9300   -6.4820   -0.3630 h1        1 MOL      0.119404
     30 H10         2.0940   -6.2970   -2.6940 hc        1 MOL      0.070550
     31 H11         1.5780   -4.5840   -2.2220 hc        1 MOL      0.070550
     32 H12        -0.0790   -4.9800   -0.8900 hc        1 MOL      0.011424
     33 H13         0.4880   -6.6210   -0.5240 hc        1 MOL      0.011424
     34 H14        -0.1700   -7.2730   -3.0130 hc        1 MOL      0.065388
     35 H15        -0.7950   -5.6040   -3.0900 hc        1 MOL      0.065388
     36 H16        -1.4810   -7.5820   -0.8720 hx        1 MOL      0.117774
     37 H17        -2.5310   -7.4420   -2.3590 hx        1 MOL      0.117774
     38 H18        -2.1810   -5.4180   -0.2170 hn        1 MOL      0.248134
     39 H19        -2.8900   -5.0900   -1.5760 hn        1 MOL      0.248134
     40 H20        -3.4390   -6.2590   -0.5170 hn        1 MOL      0.248134
     41 N4          4.5030   -3.8470   -1.4710 n         1 MOL     -0.251495
     42 C13         5.6770   -3.3770   -2.1830 c3        1 MOL      0.040875
     43 C14         6.8090   -2.8210   -1.3160 c         1 MOL      0.355845
     44 O6          7.9800   -2.6890   -1.7030 o         1 MOL     -0.510866
     45 C15         5.3880   -2.4700   -3.3700 c3        1 MOL     -0.291335
     46 C16         4.4980   -1.3120   -2.9470 c         1 MOL      0.711895
     47 O7          4.6980   -0.6720   -1.9010 o         1 MOL     -0.703318
     48 O8          3.6360   -0.9070   -3.7080 o         1 MOL     -0.703318
     49 H21         3.8060   -3.2180   -1.1020 hn        1 MOL      0.203962
     50 H22         6.1340   -4.2320   -2.6780 h1        1 MOL      0.108663
     51 H23         4.8640   -3.0170   -4.1620 hc        1 MOL      0.099484
     52 H24         6.3270   -2.1120   -3.7950 hc        1 MOL      0.099484
     53 N5          6.5240   -2.3770   -0.0940 n         1 MOL     -0.197870
     54 C17         7.5320   -1.7850    0.8350 c3        1 MOL      0.017617
     55 C18         7.8670   -0.3050    0.5870 c         1 MOL      0.440612
     56 O9          8.8890    0.2140    1.1580 o         1 MOL     -0.540385
     57 H25         5.5470   -2.4960    0.1350 hn        1 MOL      0.108584
     58 H26         8.4220   -2.3710    1.0550 h1        1 MOL      0.071031
     59 H27         7.0710   -1.8460    1.8140 h1        1 MOL      0.071031
     60 N6          7.0740    0.3470   -0.2520 n         1 MOL     -0.374328
     61 C19         7.2270    1.7380   -0.7800 c3        1 MOL      0.102591
     62 C20         5.9670    2.5650   -0.4540 c         1 MOL      0.723586
     63 O10         4.8450    2.0240   -0.5120 o         1 MOL     -0.678483
     64 C21         7.4730    1.8390   -2.2850 c3        1 MOL     -0.366236
     65 C22         8.8340    1.4530   -2.7060 c         1 MOL      0.713731
     66 N7          9.1200    1.5510   -3.9710 n         1 MOL     -0.834452
     67 O11         9.6940    0.9840   -1.9370 o         1 MOL     -0.494640
     68 H28         6.3480   -0.2020   -0.7040 hn        1 MOL      0.402913
     69 H29         8.1240    2.1270   -0.2900 h1        1 MOL      0.030332
     70 H30         7.3640    2.8870   -2.5570 hc        1 MOL      0.091760
     71 H31         6.8030    1.1090   -2.7330 hc        1 MOL      0.091760
     72 H32         8.4120    1.9240   -4.5850 hn        1 MOL      0.373192
     73 H33         9.9700    1.1430   -4.3450 hn        1 MOL      0.373192
     74 N8          6.1720    3.8490   -0.3880 n         1 MOL     -0.564699
     75 C23         5.1560    4.9040   -0.3840 c3        1 MOL      0.003380
     76 C24         4.1770    4.7720    0.8010 c         1 MOL      0.427623
     77 O12         4.5860    4.4320    1.9360 o         1 MOL     -0.451646
     78 H34         7.1280    4.1670   -0.4550 hn        1 MOL      0.354772
     79 H35         4.6960    5.1270   -1.3360 h1        1 MOL      0.074077
     80 H36         5.5960    5.8910   -0.2720 h1        1 MOL      0.074077
     81 N9          2.8880    4.8940    0.4830 n         1 MOL     -0.368248
     82 C25         1.7710    4.6280    1.3250 c3        1 MOL      0.013761
     83 C26         1.6050    3.1350    1.6240 c         1 MOL      0.497468
     84 O13         2.3310    2.2870    1.0640 o         1 MOL     -0.391548
     85 C27         0.4970    5.1210    0.6270 c3        1 MOL     -0.004685
     86 C28         0.5520    6.6240    0.4320 ca        1 MOL      0.026726
     87 C29         0.6520    7.5140    1.5020 ca        1 MOL     -0.142347
     88 C30         0.4670    7.2440   -0.8280 ca        1 MOL     -0.142347
     89 C31         0.5110    8.8750    1.3080 ca        1 MOL     -0.214588
     90 C32         0.4550    8.5870   -1.0560 ca        1 MOL     -0.214588
     91 C33         0.3600    9.4720    0.0190 ca        1 MOL      0.279779
     92 O14         0.4220   10.8040   -0.2580 oh        1 MOL     -0.453200
     93 H37         2.7410    5.0330   -0.5100 hn        1 MOL      0.207978
     94 H38         1.7960    5.2870    2.1980 h1        1 MOL      0.106772
     95 H39        -0.3780    4.9390    1.2460 hc        1 MOL      0.017879
     96 H40         0.3880    4.6230   -0.3360 hc        1 MOL      0.017879
     97 H41         0.7070    7.1240    2.5050 ha        1 MOL      0.111602
     98 H42         0.5320    6.6750   -1.7430 ha        1 MOL      0.111602
     99 H43         0.5910    9.6190    2.0830 ha        1 MOL      0.140813
    100 H44         0.3430    8.9730   -2.0510 ha        1 MOL      0.140813
    101 H45         0.4310   11.3370    0.5310 ho        1 MOL      0.374541
    102 N10         0.5270    2.7220    2.3270 n         1 MOL     -0.629226
    103 C34         0.0690    1.3890    2.6740 c3        1 MOL     -0.070716
    104 C35        -0.2820    0.5250    1.5110 c         1 MOL      0.687352
    105 O15         0.5640    0.1280    0.7400 o         1 MOL     -0.538016
    106 C36         0.8890    0.5280    3.6960 c3        1 MOL      0.446301
    107 C37         0.2610   -0.7590    4.3340 c3        1 MOL     -0.125551
    108 C38         1.4100    1.5730    4.7450 c3        1 MOL     -0.456076
    109 C39        -1.0190   -0.5010    5.1760 c3        1 MOL     -0.134785
    110 H46        -0.0310    3.4650    2.7360 hn        1 MOL      0.351490
    111 H47        -0.8470    1.5940    3.2220 h1        1 MOL      0.041970
    112 H48         1.8070    0.2150    3.2010 hc        1 MOL      0.011296
    113 H49         1.1150   -1.2660    4.7730 hc        1 MOL      0.038396
    114 H50        -0.0610   -1.2870    3.4420 hc        1 MOL      0.038396
    115 H51         0.5840    2.0040    5.3070 hc        1 MOL      0.108517
    116 H52         1.9530    1.0240    5.5130 hc        1 MOL      0.108517
    117 H53         2.0650    2.2660    4.2260 hc        1 MOL      0.108517
    118 H54        -1.4140   -1.4430    5.5500 hc        1 MOL      0.036318
    119 H55        -0.8760    0.2150    5.9760 hc        1 MOL      0.036318
    120 H56        -1.7620   -0.0810    4.5000 hc        1 MOL      0.036318
    121 N11        -1.5610    0.0200    1.4790 n         1 MOL     -0.584365
    122 C40        -1.9790   -1.0360    0.4690 c3        1 MOL     -0.007583
    123 C41        -3.5150   -0.8830    0.0970 c         1 MOL      0.435598
    124 O16        -3.9300   -1.7720   -0.6890 o         1 MOL     -0.564485
    125 C42        -1.7010   -2.4840    1.0710 c3        1 MOL      0.398679
    126 O17        -2.2950   -2.7320    2.3220 oh        1 MOL     -0.605947
    127 H57        -2.2300    0.3210    2.1670 hn        1 MOL      0.349379
    128 H58        -1.3300   -0.8490   -0.3760 h1        1 MOL      0.093625
    129 H59        -0.6370   -2.6490    1.2400 h1        1 MOL     -0.111269
    130 H60        -1.9500   -3.3110    0.3980 h1        1 MOL     -0.111269
    131 H61        -2.0220   -3.6260    2.5350 ho        1 MOL      0.403933
    132 N12        -4.3170   -0.0060    0.5720 n         1 MOL     -0.275106
    133 C43        -5.7430    0.1630    0.1850 c3        1 MOL      0.138364
    134 C44        -5.8210    0.9610   -1.0870 c         1 MOL      0.550097
    135 O18        -4.9020    1.7120   -1.5150 o         1 MOL     -0.580939
    136 C45        -6.5130    0.6880    1.3870 c3        1 MOL     -0.338163
    137 H62        -3.8510    0.6540    1.1760 hn        1 MOL      0.180900
    138 H63        -6.2110   -0.8080   -0.0070 h1        1 MOL      0.096843
    139 H64        -6.0590    1.6290    1.7060 hc        1 MOL      0.112228
    140 H65        -7.5100    0.9710    1.0540 hc        1 MOL      0.112228
    141 H66        -6.4950   -0.0420    2.1920 hc        1 MOL      0.112228
    142 N13        -6.9040    0.8620   -1.8820 n         1 MOL     -0.583607
    143 C46        -8.1400    0.0590   -1.7730 c3        1 MOL      0.415169
    144 C47        -9.3610    0.8010   -2.4370 c         1 MOL      0.340521
    145 O19        -9.1130    1.3960   -3.5020 o         1 MOL     -0.532470
    146 C48        -7.8970   -1.3110   -2.3730 c3        1 MOL     -0.088945
    147 H67        -6.8240    1.4530   -2.6930 hn        1 MOL      0.318387
    148 H68        -8.3240    0.0040   -0.6980 h1        1 MOL     -0.080562
    149 H69        -8.7590   -1.9260   -2.1000 hc        1 MOL      0.024438
    150 H70        -7.7530   -1.3100   -3.4570 hc        1 MOL      0.024438
    151 H71        -6.9990   -1.7370   -1.9290 hc        1 MOL      0.024438
    152 N14       -10.5300    0.8230   -1.8750 n         1 MOL     -0.354150
    153 C49       -10.8620    0.1490   -0.5870 c3        1 MOL     -0.198049
    154 C50       -10.5010    1.1200    0.6330 c         1 MOL      0.448098
    155 O20       -10.2720    0.6490    1.7150 o         1 MOL     -0.494057
    156 C51       -12.3670   -0.1100   -0.5580 c3        1 MOL      0.058739
    157 C52       -12.9940   -1.1440   -1.5950 c3        1 MOL     -0.161017
    158 C53       -14.1490   -1.8870   -0.9550 c         1 MOL      0.701757
    159 O21       -15.2800   -1.4400   -1.2510 o         1 MOL     -0.672760
    160 O22       -13.9500   -2.8710   -0.2150 o         1 MOL     -0.672760
    161 H72       -11.1920    1.4690   -2.2840 hn        1 MOL      0.311072
    162 H73       -10.2220   -0.7320   -0.5430 h1        1 MOL      0.168594
    163 H74       -12.9230    0.8230   -0.4970 hc        1 MOL      0.032163
    164 H75       -12.4750   -0.6190    0.3980 hc        1 MOL      0.032163
    165 H76       -12.2130   -1.8930   -1.7380 hc        1 MOL      0.017369
    166 H77       -13.2740   -0.6810   -2.5380 hc        1 MOL      0.017369
    167 N15       -10.3080    2.4140    0.4360 n         1 MOL     -0.261556
    168 C54        -9.5600    3.3340    1.3090 c3        1 MOL     -0.153810
    169 H78        -9.2150    4.1870    0.7250 h1        1 MOL      0.087931
    170 H79       -10.2100    3.6840    2.1110 h1        1 MOL      0.087931
    171 H80        -8.7020    2.8160    1.7350 h1        1 MOL      0.087931
    172 H81       -10.6830    2.7860   -0.4330 hn        1 MOL      0.241033
    173 Ca1         2.6330    0.5650   -0.9490 Ca        1 MOL      1.754669
    174 O23         0.4560   -0.4130   -2.2840 oh        1 MOL     -0.829028
    175 H82        -0.0550    0.4020   -2.2950 ho        1 MOL      0.411250
    176 H83        -0.1180   -1.0600   -2.7030 ho        1 MOL      0.411250
    177 O24         0.5080    2.2900   -1.3200 oh        1 MOL     -0.829028
    178 H84        -0.4450    2.3660   -1.3810 ho        1 MOL      0.411250
    179 H85         0.8360    2.8410   -2.0360 ho        1 MOL      0.411250
    180 O25         2.9780    2.3110   -3.0870 oh        1 MOL     -0.829028
    181 H86         3.8340    2.7160   -3.2120 ho        1 MOL      0.411250
    182 H87         2.3590    2.9530   -3.4290 ho        1 MOL      0.411250
@<TRIPOS>BOND
     1    1    2 1   
     2    1    4 1   
     3    1    5 1   
     4    1    6 1   
     5    2    3 2   
     6    2    7 1   
     7    7    8 1   
     8    7   15 1   
     9    8    9 1   
    10    8   11 1   
    11    8   16 1   
    12    9   10 2   
    13    9   19 1   
    14   11   12 1   
    15   11   17 1   
    16   11   18 1   
    17   12   13 1   
    18   12   14 1   
    19   19   20 1   
    20   19   28 1   
    21   20   21 1   
    22   20   23 1   
    23   20   29 1   
    24   21   22 2   
    25   21   41 1   
    26   23   24 1   
    27   23   30 1   
    28   23   31 1   
    29   24   25 1   
    30   24   32 1   
    31   24   33 1   
    32   25   26 1   
    33   25   34 1   
    34   25   35 1   
    35   26   27 1   
    36   26   36 1   
    37   26   37 1   
    38   27   38 1   
    39   27   39 1   
    40   27   40 1   
    41   41   42 1   
    42   41   49 1   
    43   42   43 1   
    44   42   45 1   
    45   42   50 1   
    46   43   44 2   
    47   43   53 1   
    48   45   46 1   
    49   45   51 1   
    50   45   52 1   
    51   46   47 1   
    52   46   48 1   
    53   53   54 1   
    54   53   57 1   
    55   54   55 1   
    56   54   58 1   
    57   54   59 1   
    58   55   56 2   
    59   55   60 1   
    60   60   61 1   
    61   60   68 1   
    62   61   62 1   
    63   61   64 1   
    64   61   69 1   
    65   62   63 2   
    66   62   74 1   
    67   64   65 1   
    68   64   70 1   
    69   64   71 1   
    70   65   66 1   
    71   65   67 2   
    72   66   72 1   
    73   66   73 1   
    74   74   75 1   
    75   74   78 1   
    76   75   76 1   
    77   75   79 1   
    78   75   80 1   
    79   76   77 2   
    80   76   81 1   
    81   81   82 1   
    82   81   93 1   
    83   82   83 1   
    84   82   85 1   
    85   82   94 1   
    86   83   84 2   
    87   83  102 1   
    88   85   86 1   
    89   85   95 1   
    90   85   96 1   
    91   86   87 ar  
    92   86   88 ar  
    93   87   89 ar  
    94   87   97 1   
    95   88   90 ar  
    96   88   98 1   
    97   89   91 ar  
    98   89   99 1   
    99   90   91 ar  
   100   90  100 1   
   101   91   92 1   
   102   92  101 1   
   103  102  103 1   
   104  102  110 1   
   105  103  104 1   
   106  103  106 1   
   107  103  111 1   
   108  104  105 2   
   109  104  121 1   
   110  106  107 1   
   111  106  108 1   
   112  106  112 1   
   113  107  109 1   
   114  107  113 1   
   115  107  114 1   
   116  108  115 1   
   117  108  116 1   
   118  108  117 1   
   119  109  118 1   
   120  109  119 1   
   121  109  120 1   
   122  121  122 1   
   123  121  127 1   
   124  122  123 1   
   125  122  125 1   
   126  122  128 1   
   127  123  124 2   
   128  123  132 1   
   129  125  126 1   
   130  125  129 1   
   131  125  130 1   
   132  126  131 1   
   133  132  133 1   
   134  132  137 1   
   135  133  134 1   
   136  133  136 1   
   137  133  138 1   
   138  134  135 2   
   139  134  142 1   
   140  136  139 1   
   141  136  140 1   
   142  136  141 1   
   143  142  143 1   
   144  142  147 1   
   145  143  144 1   
   146  143  146 1   
   147  143  148 1   
   148  144  145 2   
   149  144  152 1   
   150  146  149 1   
   151  146  150 1   
   152  146  151 1   
   153  152  153 1   
   154  152  161 1   
   155  153  154 1   
   156  153  156 1   
   157  153  162 1   
   158  154  155 2   
   159  154  167 1   
   160  156  157 1   
   161  156  163 1   
   162  156  164 1   
   163  157  158 1   
   164  157  165 1   
   165  157  166 1   
   166  158  159 1   
   167  158  160 1   
   168  167  168 1   
   169  167  172 1   
   170  168  169 1   
   171  168  170 1   
   172  168  171 1   
   173  174  175 1   
   174  174  176 1   
   175  177  178 1   
   176  177  179 1   
   177  180  181 1   
   178  180  182 1   
@<TRIPOS>SUBSTRUCTURE
     1 MOL         1 TEMP              0 ****  ****    0 ROOT
