@<TRIPOS>MOLECULE
MOL
  178   175     1     0     0
SMALL
resp


@<TRIPOS>ATOM
      1 C1          1.1330    6.7860   -1.6270 c3        1 MOL     -0.414260
      2 C2          2.6000    6.7100   -1.1830 c         1 MOL      0.683456
      3 O1          2.8300    7.1800   -0.0540 o         1 MOL     -0.589851
      4 H1          1.0660    6.5760   -2.6950 hc        1 MOL      0.100124
      5 H2          0.5470    6.0510   -1.0750 hc        1 MOL      0.100124
      6 H3          0.7430    7.7840   -1.4290 hc        1 MOL      0.100124
      7 N1          3.4810    6.0860   -1.9170 n         1 MOL     -0.535848
      8 C3          4.8070    5.8580   -1.5460 c3        1 MOL      0.238182
      9 C4          4.9960    4.6110   -0.7510 c         1 MOL      0.511959
     10 O2          5.5320    3.5410   -1.1480 o         1 MOL     -0.482977
     11 C5          5.6290    5.8730   -2.8010 c3        1 MOL     -0.229837
     12 C6          7.1720    5.8370   -2.5250 c         1 MOL      0.725852
     13 O3          7.5600    6.6230   -1.5910 o         1 MOL     -0.724397
     14 O4          7.9070    5.0380   -3.0810 o         1 MOL     -0.724397
     15 H4          3.2730    5.9020   -2.8820 hn        1 MOL      0.298177
     16 H5          5.1830    6.6300   -0.8770 h1        1 MOL      0.009926
     17 H6          5.4530    6.8170   -3.3000 hc        1 MOL     -0.000157
     18 H7          5.3880    5.0110   -3.4340 hc        1 MOL     -0.000157
     19 N2          4.4860    4.7040    0.5010 n         1 MOL     -0.668413
     20 C7          4.6940    3.7470    1.6140 c3        1 MOL      0.711638
     21 C8          3.3530    3.3680    2.2020 c         1 MOL      0.356379
     22 O5          2.2960    3.8940    1.7680 o         1 MOL     -0.554754
     23 C9          5.6360    4.3940    2.5780 c3        1 MOL     -0.433448
     24 H8          4.0620    5.5760    0.7900 hn        1 MOL      0.315708
     25 H9          5.1590    2.8420    1.2010 h1        1 MOL     -0.091492
     26 H10         5.8720    3.7390    3.4160 hc        1 MOL      0.092580
     27 H11         6.6300    4.5570    2.1540 hc        1 MOL      0.092580
     28 H12         5.1880    5.2650    3.0410 hc        1 MOL      0.092580
     29 N3          3.2640    2.2880    2.9730 n         1 MOL     -0.350841
     30 C10         4.2970    1.3300    3.4750 c3        1 MOL     -0.004668
     31 C11         4.5280    0.3200    2.3050 c         1 MOL      0.563570
     32 O6          3.6650    0.0840    1.3830 o         1 MOL     -0.526305
     33 C12         3.7430    0.5770    4.7500 c3        1 MOL     -0.191760
     34 C13         2.3030    0.0170    4.7100 c         1 MOL      0.647402
     35 O7          1.6090    0.0200    3.6360 o         1 MOL     -0.654407
     36 O8          1.8210   -0.4290    5.8100 o         1 MOL     -0.654407
     37 H13         2.2960    2.0000    3.0410 hn        1 MOL      0.248407
     38 H14         5.2520    1.7960    3.7330 h1        1 MOL      0.048311
     39 H15         3.7920    1.2760    5.5880 hc        1 MOL      0.054425
     40 H16         4.4650   -0.2000    4.9970 hc        1 MOL      0.054425
     41 N4          5.6490   -0.4620    2.3800 n         1 MOL     -0.570545
     42 C14         6.1490   -1.4310    1.4190 c3        1 MOL      0.206601
     43 C15         7.2510   -0.9280    0.4850 c         1 MOL      0.468009
     44 O9          7.4490    0.2740    0.3390 o         1 MOL     -0.491017
     45 H17         6.2070   -0.2080    3.1740 hn        1 MOL      0.316818
     46 H18         5.3670   -1.9840    0.8930 h1        1 MOL      0.015604
     47 H19         6.5710   -2.2780    1.9660 h1        1 MOL      0.015604
     48 N5          7.7620   -1.6880   -0.4310 n         1 MOL     -0.586714
     49 C16         7.4040   -3.1080   -0.6140 c3        1 MOL      0.047083
     50 C17         6.3510   -3.3000   -1.7430 c         1 MOL      0.658154
     51 O10         6.1920   -4.4030   -2.1960 o         1 MOL     -0.554652
     52 C18         8.7140   -3.8510   -0.8190 c3        1 MOL     -0.261065
     53 C19         9.7800   -3.8590    0.2910 c         1 MOL      0.765932
     54 N6         10.9070   -4.4250   -0.0100 n         1 MOL     -0.841383
     55 O11         9.7020   -3.2950    1.3670 o         1 MOL     -0.557747
     56 H20         8.5640   -1.3370   -0.9250 hn        1 MOL      0.371564
     57 H21         7.0080   -3.5320    0.3100 h1        1 MOL      0.085613
     58 H22         9.2020   -3.4710   -1.7080 hc        1 MOL      0.064213
     59 H23         8.4490   -4.8890   -1.0150 hc        1 MOL      0.064213
     60 H24        11.0290   -4.8390   -0.9250 hn        1 MOL      0.373554
     61 H25        11.6930   -4.3070    0.6030 hn        1 MOL      0.373554
     62 N7          5.5180   -2.3280   -2.1330 n         1 MOL     -0.392288
     63 C20         4.6180   -2.4900   -3.2620 c3        1 MOL     -0.296551
     64 C21         3.2790   -3.2760   -3.1290 c         1 MOL      0.683468
     65 O12         2.6490   -3.3980   -4.2130 o         1 MOL     -0.589521
     66 H26         5.6330   -1.3610   -1.8770 hn        1 MOL      0.322515
     67 H27         5.1210   -2.9750   -4.0940 h1        1 MOL      0.140701
     68 H28         4.3520   -1.4500   -3.4800 h1        1 MOL      0.140701
     69 N8          2.8630   -3.6670   -1.9620 n         1 MOL     -0.474310
     70 C22         1.5110   -4.3290   -1.8520 c3        1 MOL     -0.076690
     71 C23         0.3540   -3.4440   -1.4700 c         1 MOL      0.701315
     72 O13         0.6070   -2.5140   -0.7330 o         1 MOL     -0.600351
     73 C24         1.5220   -5.5600   -0.8640 c3        1 MOL      0.448254
     74 C25         2.6040   -6.5440   -1.2860 c3        1 MOL     -0.417320
     75 O14         1.8490   -5.0220    0.3690 oh        1 MOL     -0.606415
     76 H29         3.4990   -3.5710   -1.1830 hn        1 MOL      0.289380
     77 H30         1.2690   -4.7350   -2.8240 h1        1 MOL      0.064125
     78 H31         0.5170   -5.9850   -0.8760 h1        1 MOL     -0.023190
     79 H32         1.5680   -5.6910    1.0020 ho        1 MOL      0.406710
     80 H33         2.7950   -7.2550   -0.4830 hc        1 MOL      0.101829
     81 H34         2.2180   -7.1220   -2.1220 hc        1 MOL      0.101829
     82 H35         3.6000   -6.1900   -1.5320 hc        1 MOL      0.101829
     83 N9         -0.8350   -3.7290   -1.9300 n         1 MOL     -0.386870
     84 C26        -2.1360   -3.1720   -1.5770 c3        1 MOL     -0.048413
     85 C27        -2.7250   -3.6450   -0.2800 c         1 MOL      0.449910
     86 O15        -2.7670   -4.8460    0.0270 o         1 MOL     -0.547095
     87 C28        -3.0920   -3.3850   -2.7050 c3        1 MOL      0.124692
     88 C29        -4.2900   -2.4730   -2.5720 c3        1 MOL      0.156517
     89 C30        -2.4660   -3.2580   -4.1270 c3        1 MOL     -0.266034
     90 C31        -5.4930   -2.9280   -3.2990 c3        1 MOL     -0.243394
     91 H36        -0.8370   -4.4590   -2.6190 hn        1 MOL      0.243467
     92 H37        -2.1050   -2.0900   -1.4450 h1        1 MOL      0.074493
     93 H38        -3.3640   -4.4310   -2.6110 hc        1 MOL      0.000938
     94 H39        -4.0490   -1.4800   -2.9590 hc        1 MOL     -0.049995
     95 H40        -4.5730   -2.2500   -1.5390 hc        1 MOL     -0.049995
     96 H41        -1.9680   -4.1890   -4.4100 hc        1 MOL      0.065124
     97 H42        -3.2920   -2.9980   -4.7860 hc        1 MOL      0.065124
     98 H43        -1.6540   -2.5420   -4.1190 hc        1 MOL      0.065124
     99 H44        -5.6510   -3.9720   -3.0650 hc        1 MOL      0.048530
    100 H45        -6.3530   -2.3140   -3.0260 hc        1 MOL      0.048530
    101 H46        -5.4700   -2.8310   -4.3770 hc        1 MOL      0.048530
    102 N10        -3.1600   -2.6860    0.5890 n         1 MOL     -0.201402
    103 C32        -3.8620   -2.8770    1.8880 c3        1 MOL      0.080158
    104 C33        -5.3030   -2.3520    1.9040 c         1 MOL      0.392718
    105 O16        -6.1930   -2.9510    2.5550 o         1 MOL     -0.546568
    106 C34        -3.1070   -2.1120    3.0030 c3        1 MOL     -0.391192
    107 C35        -1.5770   -2.5400    3.0370 c         1 MOL      0.860697
    108 O17        -1.2820   -3.7230    3.2920 o         1 MOL     -0.747282
    109 O18        -0.6800   -1.7750    2.7710 o         1 MOL     -0.747282
    110 H47        -3.0590   -1.7140    0.3150 hn        1 MOL      0.082322
    111 H48        -3.9580   -3.9340    2.0720 h1        1 MOL      0.088774
    112 H49        -3.5020   -2.3500    3.9840 hc        1 MOL      0.084120
    113 H50        -3.1350   -1.0620    2.7420 hc        1 MOL      0.084120
    114 N11        -5.5850   -1.2900    1.1530 n         1 MOL     -0.366824
    115 C36        -6.9520   -0.7230    1.1210 c3        1 MOL      0.093000
    116 C37        -6.8220    0.7010    0.6250 c         1 MOL      0.063230
    117 O19        -7.0910    1.0520   -0.5040 o         1 MOL     -0.342667
    118 C38        -7.8650   -1.5940    0.2020 c3        1 MOL     -0.307685
    119 C39        -9.2330   -0.9880    0.0790 ca        1 MOL      0.209019
    120 C40        -9.8990   -1.1940   -1.1170 ca        1 MOL     -0.209527
    121 C41        -9.9010   -0.4220    1.1760 ca        1 MOL     -0.209527
    122 C42       -11.2920   -0.8860   -1.3010 ca        1 MOL     -0.044404
    123 C43       -11.2170    0.0050    0.9100 ca        1 MOL     -0.044404
    124 C44       -11.9780   -0.2300   -0.2960 ca        1 MOL     -0.231782
    125 H51        -4.7980   -0.7740    0.7950 hn        1 MOL      0.525836
    126 H52        -7.3490   -0.7080    2.1330 h1        1 MOL      0.097835
    127 H53        -7.8150   -2.6480    0.4610 hc        1 MOL      0.121997
    128 H54        -7.5570   -1.6190   -0.8450 hc        1 MOL      0.121997
    129 H55        -9.4180   -1.7240   -1.9240 ha        1 MOL      0.118987
    130 H56        -9.3380   -0.1450    2.0660 ha        1 MOL      0.118987
    131 H57       -11.7150   -1.1660   -2.2490 ha        1 MOL      0.082272
    132 H58       -11.7280    0.5060    1.7170 ha        1 MOL      0.082272
    133 H59       -12.9260    0.2730   -0.4260 ha        1 MOL      0.133862
    134 N12        -6.3770    1.5780    1.5540 n         1 MOL      0.127866
    135 C45        -6.3280    3.0030    1.3310 c3        1 MOL      0.021883
    136 C46        -5.6130    3.5410    0.0270 c         1 MOL      0.211711
    137 O20        -5.9010    4.6430   -0.4900 o         1 MOL     -0.477286
    138 C47        -5.8510    3.6510    2.6290 c3        1 MOL     -0.045345
    139 C48        -6.0380    2.6240    3.7070 c3        1 MOL      0.005736
    140 C49        -5.8600    1.3340    2.9310 c3        1 MOL     -0.257132
    141 H60        -7.3850    3.2350    1.2940 h1        1 MOL      0.057674
    142 H61        -4.8330    4.0050    2.5020 hc        1 MOL      0.036192
    143 H62        -6.5470    4.4380    2.9190 hc        1 MOL      0.036192
    144 H63        -5.2850    2.7090    4.4920 hc        1 MOL      0.029586
    145 H64        -7.0200    2.7150    4.1630 hc        1 MOL      0.029586
    146 H65        -4.7790    1.1710    2.8550 h1        1 MOL      0.116631
    147 H66        -6.2930    0.4890    3.4700 h1        1 MOL      0.116631
    148 N13        -4.6860    2.7440   -0.4990 n         1 MOL      0.060279
    149 C50        -4.1260    2.9310   -1.8180 c3        1 MOL     -0.322707
    150 C51        -5.2290    3.1080   -2.9210 c         1 MOL      0.534998
    151 O21        -5.1390    4.0520   -3.6840 o         1 MOL     -0.543783
    152 C52        -3.2830    1.7770   -2.1900 c3        1 MOL     -0.031582
    153 C53        -2.0560    1.6570   -1.2930 c3        1 MOL     -0.362200
    154 C54        -2.3170    0.4530   -0.2890 c         1 MOL      0.848140
    155 O22        -1.2320   -0.1280   -0.0630 o         1 MOL     -0.744577
    156 O23        -3.3950    0.2330    0.2650 o         1 MOL     -0.744577
    157 H67        -4.4250    1.9810    0.1080 hn        1 MOL      0.102742
    158 H68        -3.5280    3.8320   -1.7720 h1        1 MOL      0.156519
    159 H69        -2.8250    1.9410   -3.1700 hc        1 MOL      0.050529
    160 H70        -3.8100    0.8340   -2.2330 hc        1 MOL      0.050529
    161 H71        -1.9120    2.6390   -0.8370 hc        1 MOL      0.122932
    162 H72        -1.2380    1.4210   -1.9600 hc        1 MOL      0.122932
    163 N14        -6.2620    2.2620   -2.9470 n         1 MOL     -0.192579
    164 C55        -7.3530    2.4010   -3.8810 c3        1 MOL     -0.307050
    165 H73        -6.9780    2.2840   -4.8980 h1        1 MOL      0.112283
    166 H74        -8.1030    1.6360   -3.6810 h1        1 MOL      0.112283
    167 H75        -7.8020    3.3880   -3.7710 h1        1 MOL      0.112283
    168 H76        -6.4150    1.7060   -2.1160 hn        1 MOL      0.196897
    169 Ca1         0.9620   -0.6140    1.1080 Ca        1 MOL      1.752537
    170 O24         0.3150    2.0050    1.3360 oh        1 MOL     -0.924289
    171 H77         0.8830    2.7530    1.4920 ho        1 MOL      0.437052
    172 H78        -0.5020    2.3970    1.0150 ho        1 MOL      0.437052
    173 O25         2.1700   -2.8140    1.8740 oh        1 MOL     -0.924289
    174 H79         2.7950   -3.0400    2.5610 ho        1 MOL      0.437052
    175 H80         1.9260   -3.6570    1.4880 ho        1 MOL      0.437052
    176 O26         2.0740    0.4720   -1.1320 oh        1 MOL     -0.924289
    177 H81         2.9610    0.8330   -1.1350 ho        1 MOL      0.437052
    178 H82         1.9020    0.2680   -2.0520 ho        1 MOL      0.437052
@<TRIPOS>BOND
     1    1    2 1   
     2    1    4 1   
     3    1    5 1   
     4    1    6 1   
     5    2    3 2   
     6    2    7 1   
     7    7    8 1   
     8    7   15 1   
     9    8    9 1   
    10    8   11 1   
    11    8   16 1   
    12    9   10 2   
    13    9   19 1   
    14   11   12 1   
    15   11   17 1   
    16   11   18 1   
    17   12   13 1   
    18   12   14 1   
    19   19   20 1   
    20   19   24 1   
    21   20   21 1   
    22   20   23 1   
    23   20   25 1   
    24   21   22 2   
    25   21   29 1   
    26   23   26 1   
    27   23   27 1   
    28   23   28 1   
    29   29   30 1   
    30   29   37 1   
    31   30   31 1   
    32   30   33 1   
    33   30   38 1   
    34   31   32 2   
    35   31   41 1   
    36   33   34 1   
    37   33   39 1   
    38   33   40 1   
    39   34   35 1   
    40   34   36 1   
    41   41   42 1   
    42   41   45 1   
    43   42   43 1   
    44   42   46 1   
    45   42   47 1   
    46   43   44 2   
    47   43   48 1   
    48   48   49 1   
    49   48   56 1   
    50   49   50 1   
    51   49   52 1   
    52   49   57 1   
    53   50   51 2   
    54   50   62 1   
    55   52   53 1   
    56   52   58 1   
    57   52   59 1   
    58   53   54 1   
    59   53   55 2   
    60   54   60 1   
    61   54   61 1   
    62   62   63 1   
    63   62   66 1   
    64   63   64 1   
    65   63   67 1   
    66   63   68 1   
    67   64   65 2   
    68   64   69 1   
    69   69   70 1   
    70   69   76 1   
    71   70   71 1   
    72   70   73 1   
    73   70   77 1   
    74   71   72 2   
    75   71   83 1   
    76   73   74 1   
    77   73   75 1   
    78   73   78 1   
    79   74   80 1   
    80   74   81 1   
    81   74   82 1   
    82   75   79 1   
    83   83   84 1   
    84   83   91 1   
    85   84   85 1   
    86   84   87 1   
    87   84   92 1   
    88   85   86 2   
    89   85  102 1   
    90   87   88 1   
    91   87   89 1   
    92   87   93 1   
    93   88   90 1   
    94   88   94 1   
    95   88   95 1   
    96   89   96 1   
    97   89   97 1   
    98   89   98 1   
    99   90   99 1   
   100   90  100 1   
   101   90  101 1   
   102  102  103 1   
   103  102  110 1   
   104  103  104 1   
   105  103  106 1   
   106  103  111 1   
   107  104  105 2   
   108  104  114 1   
   109  106  107 1   
   110  106  112 1   
   111  106  113 1   
   112  107  108 1   
   113  107  109 1   
   114  114  115 1   
   115  114  125 1   
   116  115  116 1   
   117  115  118 1   
   118  115  126 1   
   119  116  117 2   
   120  116  134 1   
   121  118  119 1   
   122  118  127 1   
   123  118  128 1   
   124  119  120 ar  
   125  119  121 ar  
   126  120  122 ar  
   127  120  129 1   
   128  121  123 ar  
   129  121  130 1   
   130  122  124 ar  
   131  122  131 1   
   132  123  124 ar  
   133  123  132 1   
   134  124  133 1   
   135  134  135 1   
   136  134  140 1   
   137  135  136 1   
   138  135  138 1   
   139  135  141 1   
   140  136  137 2   
   141  136  148 1   
   142  138  139 1   
   143  138  142 1   
   144  138  143 1   
   145  139  140 1   
   146  139  144 1   
   147  139  145 1   
   148  140  146 1   
   149  140  147 1   
   150  148  149 1   
   151  148  157 1   
   152  149  150 1   
   153  149  152 1   
   154  149  158 1   
   155  150  151 2   
   156  150  163 1   
   157  152  153 1   
   158  152  159 1   
   159  152  160 1   
   160  153  154 1   
   161  153  161 1   
   162  153  162 1   
   163  154  155 1   
   164  154  156 1   
   165  163  164 1   
   166  163  168 1   
   167  164  165 1   
   168  164  166 1   
   169  164  167 1   
   170  170  171 1   
   171  170  172 1   
   172  173  174 1   
   173  173  175 1   
   174  176  177 1   
   175  176  178 1   
@<TRIPOS>SUBSTRUCTURE
     1 MOL         1 TEMP              0 ****  ****    0 ROOT
