@<TRIPOS>MOLECULE
MOL
  179   176     1     0     0
SMALL
resp


@<TRIPOS>ATOM
      1 C1         -3.8940   -0.9960    6.2420 c3        1 MOL     -0.356861
      2 C2         -3.6460   -1.1030    4.6900 c         1 MOL      0.715837
      3 O1         -4.4770   -0.7270    3.8830 o         1 MOL     -0.586668
      4 H1         -4.2630   -1.9510    6.6170 hc        1 MOL      0.090313
      5 H2         -2.9590   -0.7470    6.7430 hc        1 MOL      0.090313
      6 H3         -4.6320   -0.2190    6.4400 hc        1 MOL      0.090313
      7 N1         -2.4900   -1.6060    4.3630 n         1 MOL     -0.603365
      8 C3         -1.8760   -1.7070    3.0310 c3        1 MOL     -0.047640
      9 C4         -2.3500   -2.9470    2.2560 c         1 MOL      0.627320
     10 O2         -1.9930   -4.0840    2.5550 o         1 MOL     -0.518342
     11 C5         -0.3480   -1.6180    3.2500 c3        1 MOL     -0.046816
     12 C6          0.3520   -1.5700    1.9340 c         1 MOL      0.426289
     13 O3          1.6090   -1.7330    1.9740 o         1 MOL     -0.704705
     14 O4         -0.2370   -1.2720    0.8870 o         1 MOL     -0.704705
     15 H4         -1.9030   -1.7640    5.1760 hn        1 MOL      0.317325
     16 H5         -2.1920   -0.8070    2.4860 h1        1 MOL      0.100641
     17 H6          0.0040   -2.5170    3.7550 hc        1 MOL      0.062599
     18 H7         -0.0480   -0.7550    3.8430 hc        1 MOL      0.062599
     19 N2         -3.2130   -2.7020    1.2590 n         1 MOL     -0.268176
     20 C7         -3.9570   -3.6870    0.5010 c3        1 MOL     -0.164693
     21 C8         -3.0530   -4.7320   -0.1630 c         1 MOL      0.516112
     22 O5         -3.4910   -5.8860   -0.2090 o         1 MOL     -0.538865
     23 C9         -4.8500   -3.0060   -0.5070 c3        1 MOL      0.020569
     24 C10        -5.8530   -3.9030   -1.2460 c3        1 MOL     -0.027810
     25 C11        -6.6700   -3.2110   -2.3750 c3        1 MOL     -0.182080
     26 C12        -7.5560   -2.0980   -1.8890 c3        1 MOL     -0.009441
     27 N3         -8.2950   -1.4230   -2.9170 n4        1 MOL     -0.228043
     28 H8         -3.4520   -1.7490    1.0520 hn        1 MOL      0.230943
     29 H9         -4.5910   -4.2190    1.2000 h1        1 MOL      0.129872
     30 H10        -4.1980   -2.5050   -1.2180 hc        1 MOL      0.035898
     31 H11        -5.4270   -2.2310    0.0130 hc        1 MOL      0.035898
     32 H12        -6.4810   -4.4170   -0.5150 hc        1 MOL      0.051119
     33 H13        -5.3290   -4.7410   -1.6940 hc        1 MOL      0.051119
     34 H14        -7.3050   -4.0380   -2.6910 hc        1 MOL      0.054894
     35 H15        -6.0160   -2.9590   -3.2050 hc        1 MOL      0.054894
     36 H16        -6.8220   -1.3820   -1.5360 hx        1 MOL      0.106021
     37 H17        -8.1670   -2.3890   -1.0380 hx        1 MOL      0.106021
     38 H18        -8.6840   -0.5700   -2.5490 hn        1 MOL      0.274676
     39 H19        -7.7360   -1.3800   -3.7630 hn        1 MOL      0.274676
     40 H20        -9.1130   -1.8630   -3.3070 hn        1 MOL      0.274676
     41 N4         -1.8310   -4.3490   -0.6180 n         1 MOL     -0.322640
     42 C13        -0.9000   -5.2050   -1.3160 c3        1 MOL      0.153767
     43 C14         0.2660   -5.7230   -0.4290 c         1 MOL      0.299125
     44 O6          0.9930   -6.7030   -0.7900 o         1 MOL     -0.543323
     45 C15        -0.2250   -4.4260   -2.5170 c3        1 MOL     -0.559347
     46 C16         0.3660   -3.0670   -2.1100 c         1 MOL      0.831895
     47 O7          1.2580   -2.9510   -1.3010 o         1 MOL     -0.747913
     48 O8         -0.0840   -2.0450   -2.6700 o         1 MOL     -0.747913
     49 H21        -1.6390   -3.3620   -0.5200 hn        1 MOL      0.237541
     50 H22        -1.4300   -6.0610   -1.7400 h1        1 MOL      0.089196
     51 H23        -1.0410   -4.3360   -3.2410 hc        1 MOL      0.152374
     52 H24         0.5170   -5.1210   -2.9240 hc        1 MOL      0.152374
     53 N5          0.6130   -5.0240    0.6750 n         1 MOL      0.127744
     54 C17         1.7000   -5.2320    1.6630 c3        1 MOL     -0.381753
     55 C18         3.0970   -5.1030    1.0430 c         1 MOL      0.634645
     56 O9          4.0680   -5.6180    1.6220 o         1 MOL     -0.580303
     57 H25        -0.0180   -4.2580    0.8470 hn        1 MOL     -0.032284
     58 H26         1.6970   -6.2670    2.0180 h1        1 MOL      0.165192
     59 H27         1.4920   -4.5270    2.4620 h1        1 MOL      0.165192
     60 N6          3.2610   -4.3920   -0.0760 n         1 MOL     -0.325885
     61 C19         4.5200   -4.0970   -0.7580 c3        1 MOL      0.152342
     62 C20         4.8570   -2.5720   -0.9130 c         1 MOL      0.513310
     63 O10         3.9110   -1.7780   -0.6750 o         1 MOL     -0.566479
     64 C21         4.3900   -4.8650   -2.1350 c3        1 MOL     -0.299743
     65 C22         5.4750   -4.4530   -3.1150 c         1 MOL      0.700418
     66 N7          5.1210   -4.0860   -4.3290 n         1 MOL     -0.797035
     67 O11         6.6230   -4.4400   -2.7430 o         1 MOL     -0.572192
     68 H28         2.4200   -3.9260   -0.3790 hn        1 MOL      0.274403
     69 H29         5.3350   -4.5530   -0.2010 h1        1 MOL      0.035028
     70 H30         3.4290   -4.5420   -2.5140 hc        1 MOL      0.098851
     71 H31         4.3900   -5.9480   -2.0570 hc        1 MOL      0.098851
     72 H32         4.1930   -4.3970   -4.5950 hn        1 MOL      0.362969
     73 H33         5.6560   -3.4450   -4.9050 hn        1 MOL      0.362969
     74 N8          6.0930   -2.1460   -1.2340 n         1 MOL     -0.460781
     75 C23         6.4360   -0.7470   -1.6070 c3        1 MOL      0.085596
     76 C24         6.2450    0.2220   -0.4460 c         1 MOL      0.477117
     77 O12         6.5080   -0.0450    0.7190 o         1 MOL     -0.459519
     78 H34         6.7530   -2.8710   -1.5050 hn        1 MOL      0.315838
     79 H35         5.8510   -0.4040   -2.4670 h1        1 MOL      0.033410
     80 H36         7.4680   -0.7130   -1.9230 h1        1 MOL      0.033410
     81 N9          5.9290    1.4320   -0.8420 n         1 MOL     -0.523799
     82 C25         5.3450    2.5070    0.0950 c3        1 MOL      0.201765
     83 C26         4.2250    1.9020    0.9680 c         1 MOL      0.495451
     84 O13         3.6660    0.8790    0.7210 o         1 MOL     -0.442862
     85 C27         4.9940    3.7220   -0.7840 c3        1 MOL     -0.327132
     86 C28         6.1440    4.3900   -1.4180 ca        1 MOL      0.196213
     87 C29         6.5670    4.2170   -2.7810 ca        1 MOL     -0.217415
     88 C30         6.9700    5.2200   -0.6450 ca        1 MOL     -0.217415
     89 C31         7.6920    4.8070   -3.3460 ca        1 MOL     -0.212267
     90 C32         8.1720    5.7890   -1.1690 ca        1 MOL     -0.212267
     91 C33         8.4930    5.6900   -2.5690 ca        1 MOL      0.297539
     92 O14         9.6410    6.2900   -3.0870 oh        1 MOL     -0.479645
     93 H37         5.9230    1.6330   -1.8380 hn        1 MOL      0.294188
     94 H38         6.1660    2.7530    0.7610 h1        1 MOL      0.060876
     95 H39         4.4980    4.4550   -0.1470 hc        1 MOL      0.080725
     96 H40         4.3900    3.2580   -1.5620 hc        1 MOL      0.080725
     97 H41         6.1280    3.4050   -3.3320 ha        1 MOL      0.135622
     98 H42         6.7030    5.4400    0.3830 ha        1 MOL      0.135622
     99 H43         7.9620    4.5320   -4.3540 ha        1 MOL      0.150641
    100 H44         8.7070    6.5190   -0.5850 ha        1 MOL      0.150641
    101 H45        10.1970    6.7610   -2.4670 ho        1 MOL      0.375691
    102 N10         3.8610    2.5660    2.0700 n         1 MOL     -0.591752
    103 C34         2.8670    2.2920    3.1230 c3        1 MOL      0.259135
    104 C35         1.4610    2.0920    2.5150 c         1 MOL      0.410400
    105 O15         1.2110    1.3310    1.6110 o         1 MOL     -0.285220
    106 C36         3.1470    1.0460    4.0400 c3        1 MOL      0.070880
    107 C37         2.1470    0.8650    5.2550 c3        1 MOL      0.016296
    108 C38         4.6210    1.0140    4.5190 c3        1 MOL     -0.335221
    109 C39         2.2920    1.9480    6.3550 c3        1 MOL     -0.042399
    110 H46         4.4460    3.3830    2.1880 hn        1 MOL      0.285662
    111 H47         2.7400    3.1860    3.7180 h1        1 MOL      0.006990
    112 H48         3.0110    0.1410    3.4320 hc        1 MOL      0.080973
    113 H49         2.1900   -0.1050    5.7420 hc        1 MOL      0.019199
    114 H50         1.1330    0.9460    4.8480 hc        1 MOL      0.019199
    115 H51         4.8810    1.8790    5.1270 hc        1 MOL      0.090290
    116 H52         4.8140    0.1740    5.1840 hc        1 MOL      0.090290
    117 H53         5.2620    0.9200    3.6360 hc        1 MOL      0.090290
    118 H54         1.9100    2.8970    5.9770 hc        1 MOL     -0.001472
    119 H55         1.5710    1.7820    7.1570 hc        1 MOL     -0.001472
    120 H56         3.3030    2.1420    6.7060 hc        1 MOL     -0.001472
    121 N11         0.4170    2.7920    3.1250 n         1 MOL     -0.652764
    122 C40        -0.9420    2.3240    3.2270 c3        1 MOL     -0.028760
    123 C41        -1.7430    2.2130    1.8900 c         1 MOL      0.496305
    124 O16        -2.8480    1.8200    1.9290 o         1 MOL     -0.510897
    125 C42        -1.6000    3.1820    4.2490 c3        1 MOL     -0.006519
    126 O17        -0.8640    3.0790    5.4800 oh        1 MOL     -0.569580
    127 H57         0.6450    3.5050    3.8000 hn        1 MOL      0.332025
    128 H58        -0.8700    1.3260    3.6630 h1        1 MOL      0.231295
    129 H59        -2.6010    2.8080    4.4560 h1        1 MOL      0.114004
    130 H60        -1.7290    4.2330    4.0090 h1        1 MOL      0.114004
    131 H61        -0.4830    3.9290    5.6950 ho        1 MOL      0.385880
    132 N12        -1.1870    2.5740    0.7370 n         1 MOL     -0.325644
    133 C43        -1.8520    2.6520   -0.5490 c3        1 MOL      0.067121
    134 C44        -1.6690    1.3310   -1.3130 c         1 MOL      0.629409
    135 O18        -0.5890    0.8230   -1.5510 o         1 MOL     -0.596091
    136 C45        -1.3830    3.8970   -1.3080 c3        1 MOL     -0.125930
    137 H62        -0.1850    2.5580    0.8720 hn        1 MOL      0.163725
    138 H63        -2.9150    2.8550   -0.4620 h1        1 MOL      0.076567
    139 H64        -2.1540    4.4030   -1.8870 hc        1 MOL      0.029748
    140 H65        -1.1570    4.7250   -0.6240 hc        1 MOL      0.029748
    141 H66        -0.5110    3.6520   -1.9200 hc        1 MOL      0.029748
    142 N13        -2.7180    0.7340   -1.9040 n         1 MOL     -0.565045
    143 C46        -4.1400    1.3140   -2.0010 c3        1 MOL      0.061601
    144 C47        -4.1820    2.6290   -2.8200 c         1 MOL      0.703272
    145 O19        -3.5210    2.7710   -3.8290 o         1 MOL     -0.599970
    146 C48        -4.9700    0.2590   -2.6820 c3        1 MOL     -0.213846
    147 H67        -2.4170    0.0280   -2.5560 hn        1 MOL      0.348266
    148 H68        -4.4560    1.4710   -0.9700 h1        1 MOL      0.104502
    149 H69        -4.9540   -0.6350   -2.0480 hc        1 MOL      0.079865
    150 H70        -5.9810    0.6460   -2.8030 hc        1 MOL      0.079865
    151 H71        -4.6170    0.0390   -3.6920 hc        1 MOL      0.079865
    152 N14        -4.9800    3.6590   -2.4890 n         1 MOL     -0.501996
    153 C49        -6.0330    3.7930   -1.4790 c3        1 MOL     -0.216460
    154 C50        -5.8220    5.1640   -0.6860 c         1 MOL      0.588452
    155 O20        -6.1540    5.1380    0.5120 o         1 MOL     -0.522078
    156 C51        -7.3850    3.7860   -2.2210 c3        1 MOL      0.140781
    157 C52        -8.5220    3.1570   -1.4670 c3        1 MOL     -0.206947
    158 C53        -8.5040    1.6460   -1.7820 c         1 MOL      0.767389
    159 O21        -8.8630    1.2570   -2.9030 o         1 MOL     -0.733025
    160 O22        -8.2630    0.7770   -0.8740 o         1 MOL     -0.733025
    161 H72        -4.8380    4.4240   -3.1210 hn        1 MOL      0.277613
    162 H73        -6.0540    2.9780   -0.7590 h1        1 MOL      0.128510
    163 H74        -7.1960    3.3070   -3.1790 hc        1 MOL     -0.013917
    164 H75        -7.7000    4.8100   -2.4200 hc        1 MOL     -0.013917
    165 H76        -9.4820    3.5400   -1.8160 hc        1 MOL      0.060224
    166 H77        -8.4430    3.3230   -0.3850 hc        1 MOL      0.060224
    167 N15        -5.2190    6.2220   -1.2100 n         1 MOL     -0.363424
    168 C54        -5.0130    7.5190   -0.5320 c3        1 MOL     -0.058254
    169 H78        -5.2860    7.4260    0.5200 h1        1 MOL      0.071103
    170 H79        -3.9650    7.8080   -0.6110 h1        1 MOL      0.071103
    171 H80        -5.6370    8.2790   -1.0030 h1        1 MOL      0.071103
    172 H81        -4.8860    6.1420   -2.1640 hn        1 MOL      0.265169
    173 Ca1         1.7050   -0.5040   -0.6260 Ca        1 MOL      1.769100
    174 O23         2.7710   -0.2200   -3.0840 oh        1 MOL     -0.878993
    175 H82         2.5830   -0.8910   -3.7380 ho        1 MOL      0.428955
    176 H83         3.2810    0.4390   -3.5520 ho        1 MOL      0.428955
    177 O24         1.8730    2.1660   -1.1370 oh        1 MOL     -0.878993
    178 H84         1.9940    3.0820   -0.8650 ho        1 MOL      0.428955
    179 H85         1.3190    2.2120   -1.9110 ho        1 MOL      0.428955
@<TRIPOS>BOND
     1    1    2 1   
     2    1    4 1   
     3    1    5 1   
     4    1    6 1   
     5    2    3 2   
     6    2    7 1   
     7    7    8 1   
     8    7   15 1   
     9    8    9 1   
    10    8   11 1   
    11    8   16 1   
    12    9   10 2   
    13    9   19 1   
    14   11   12 1   
    15   11   17 1   
    16   11   18 1   
    17   12   13 1   
    18   12   14 1   
    19   19   20 1   
    20   19   28 1   
    21   20   21 1   
    22   20   23 1   
    23   20   29 1   
    24   21   22 2   
    25   21   41 1   
    26   23   24 1   
    27   23   30 1   
    28   23   31 1   
    29   24   25 1   
    30   24   32 1   
    31   24   33 1   
    32   25   26 1   
    33   25   34 1   
    34   25   35 1   
    35   26   27 1   
    36   26   36 1   
    37   26   37 1   
    38   27   38 1   
    39   27   39 1   
    40   27   40 1   
    41   41   42 1   
    42   41   49 1   
    43   42   43 1   
    44   42   45 1   
    45   42   50 1   
    46   43   44 2   
    47   43   53 1   
    48   45   46 1   
    49   45   51 1   
    50   45   52 1   
    51   46   47 1   
    52   46   48 1   
    53   53   54 1   
    54   53   57 1   
    55   54   55 1   
    56   54   58 1   
    57   54   59 1   
    58   55   56 2   
    59   55   60 1   
    60   60   61 1   
    61   60   68 1   
    62   61   62 1   
    63   61   64 1   
    64   61   69 1   
    65   62   63 2   
    66   62   74 1   
    67   64   65 1   
    68   64   70 1   
    69   64   71 1   
    70   65   66 1   
    71   65   67 2   
    72   66   72 1   
    73   66   73 1   
    74   74   75 1   
    75   74   78 1   
    76   75   76 1   
    77   75   79 1   
    78   75   80 1   
    79   76   77 2   
    80   76   81 1   
    81   81   82 1   
    82   81   93 1   
    83   82   83 1   
    84   82   85 1   
    85   82   94 1   
    86   83   84 2   
    87   83  102 1   
    88   85   86 1   
    89   85   95 1   
    90   85   96 1   
    91   86   87 ar  
    92   86   88 ar  
    93   87   89 ar  
    94   87   97 1   
    95   88   90 ar  
    96   88   98 1   
    97   89   91 ar  
    98   89   99 1   
    99   90   91 ar  
   100   90  100 1   
   101   91   92 1   
   102   92  101 1   
   103  102  103 1   
   104  102  110 1   
   105  103  104 1   
   106  103  106 1   
   107  103  111 1   
   108  104  105 2   
   109  104  121 1   
   110  106  107 1   
   111  106  108 1   
   112  106  112 1   
   113  107  109 1   
   114  107  113 1   
   115  107  114 1   
   116  108  115 1   
   117  108  116 1   
   118  108  117 1   
   119  109  118 1   
   120  109  119 1   
   121  109  120 1   
   122  121  122 1   
   123  121  127 1   
   124  122  123 1   
   125  122  125 1   
   126  122  128 1   
   127  123  124 2   
   128  123  132 1   
   129  125  126 1   
   130  125  129 1   
   131  125  130 1   
   132  126  131 1   
   133  132  133 1   
   134  132  137 1   
   135  133  134 1   
   136  133  136 1   
   137  133  138 1   
   138  134  135 2   
   139  134  142 1   
   140  136  139 1   
   141  136  140 1   
   142  136  141 1   
   143  142  143 1   
   144  142  147 1   
   145  143  144 1   
   146  143  146 1   
   147  143  148 1   
   148  144  145 2   
   149  144  152 1   
   150  146  149 1   
   151  146  150 1   
   152  146  151 1   
   153  152  153 1   
   154  152  161 1   
   155  153  154 1   
   156  153  156 1   
   157  153  162 1   
   158  154  155 2   
   159  154  167 1   
   160  156  157 1   
   161  156  163 1   
   162  156  164 1   
   163  157  158 1   
   164  157  165 1   
   165  157  166 1   
   166  158  159 1   
   167  158  160 1   
   168  167  168 1   
   169  167  172 1   
   170  168  169 1   
   171  168  170 1   
   172  168  171 1   
   173  174  175 1   
   174  174  176 1   
   175  177  178 1   
   176  177  179 1   
@<TRIPOS>SUBSTRUCTURE
     1 MOL         1 TEMP              0 ****  ****    0 ROOT
