@<TRIPOS>MOLECULE
MOL
  189   185     1     0     0
SMALL
resp


@<TRIPOS>ATOM
      1 C1          5.1290    3.5030   -3.7410 c3        1 MOL     -0.331464
      2 C2          5.7350    2.7320   -2.5420 c         1 MOL      0.697605
      3 O1          4.9210    2.4310   -1.6620 o         1 MOL     -0.649978
      4 H1          4.8900    2.8020   -4.5410 hc        1 MOL      0.082962
      5 H2          4.2210    4.0140   -3.4240 hc        1 MOL      0.082962
      6 H3          5.8500    4.2360   -4.1050 hc        1 MOL      0.082962
      7 N1          7.0380    2.3760   -2.6120 n         1 MOL     -0.638845
      8 C3          7.6330    1.3280   -1.8730 c3        1 MOL      0.304955
      9 C4          6.5350    0.2270   -1.5590 c         1 MOL      0.038171
     10 O2          6.0620    0.1130   -0.3930 o         1 MOL     -0.301257
     11 C5          8.4850    1.8040   -0.7200 c3        1 MOL     -0.025153
     12 C6          7.9450    3.0260   -0.0020 c         1 MOL      0.731837
     13 O3          6.7570    3.0920    0.4560 o         1 MOL     -0.735439
     14 O4          8.7150    4.0210    0.0570 o         1 MOL     -0.735439
     15 H4          7.5710    2.8360   -3.3340 hn        1 MOL      0.330737
     16 H5          8.3180    0.8060   -2.5490 h1        1 MOL      0.025619
     17 H6          9.4070    2.1510   -1.2040 hc        1 MOL     -0.006323
     18 H7          8.8260    0.9820   -0.0790 hc        1 MOL     -0.006323
     19 N2          6.1840   -0.5520   -2.5930 n         1 MOL     -0.273028
     20 C7          5.1870   -1.6260   -2.5940 c3        1 MOL      0.149129
     21 C8          5.5480   -2.8460   -1.7350 c         1 MOL      0.324098
     22 O5          5.3980   -3.9730   -2.1870 o         1 MOL     -0.528710
     23 C9          3.7950   -1.0560   -2.4200 c3        1 MOL     -0.037116
     24 C10         2.6500   -2.1180   -2.1910 c3        1 MOL      0.165443
     25 C11         3.3490   -0.2270   -3.5830 c3        1 MOL     -0.443024
     26 C12         2.4920   -3.0760   -3.3460 c3        1 MOL     -0.441947
     27 H8          6.5590   -0.3880   -3.5140 hn        1 MOL      0.251116
     28 H9          5.1820   -2.1190   -3.5570 h1        1 MOL      0.064608
     29 H10         3.6910   -0.4560   -1.5120 hc        1 MOL      0.137750
     30 H11         1.6730   -1.6360   -2.0510 hc        1 MOL      0.038881
     31 H12         2.7570   -2.6130   -1.2300 hc        1 MOL      0.038881
     32 H13         4.0780    0.5790   -3.6900 hc        1 MOL      0.109563
     33 H14         3.3260   -0.7270   -4.5470 hc        1 MOL      0.109563
     34 H15         2.4590    0.3830   -3.3890 hc        1 MOL      0.109563
     35 H16         3.4340   -3.4920   -3.7090 hc        1 MOL      0.097882
     36 H17         1.7060   -3.8010   -3.1270 hc        1 MOL      0.097882
     37 H18         2.0650   -2.4370   -4.1190 hc        1 MOL      0.097882
     38 N3          6.0800   -2.6430   -0.5360 n         1 MOL     -0.206056
     39 C13         6.8150   -3.7690    0.1020 c3        1 MOL      0.311863
     40 C14         6.1400   -4.8600    1.0020 c         1 MOL      0.417169
     41 O6          6.6930   -5.9250    1.1830 o         1 MOL     -0.571115
     42 C15         8.2060   -3.4350    0.7450 c3        1 MOL     -0.308460
     43 C16         9.0440   -2.5790   -0.2410 c         1 MOL      0.763058
     44 O7          9.3900   -3.0540   -1.3380 o         1 MOL     -0.734426
     45 O8          9.5660   -1.4870    0.0990 o         1 MOL     -0.734426
     46 H19         6.0450   -1.7240   -0.1250 hn        1 MOL      0.167239
     47 H20         7.0930   -4.4000   -0.7480 h1        1 MOL     -0.006739
     48 H21         8.7280   -4.3710    0.9610 hc        1 MOL      0.071917
     49 H22         7.9940   -2.8330    1.6260 hc        1 MOL      0.071917
     50 N4          5.1210   -4.6610    1.7820 n         1 MOL     -0.448933
     51 C17         4.3350   -3.4340    2.0550 c3        1 MOL      0.129564
     52 C18         4.6840   -2.7640    3.4150 c         1 MOL      0.497070
     53 O9          5.6370   -3.1820    4.1270 o         1 MOL     -0.558667
     54 H23         4.7550   -5.4940    2.2220 hn        1 MOL      0.291257
     55 H24         3.2850   -3.6970    2.1140 h1        1 MOL      0.001175
     56 H25         4.3720   -2.6620    1.2860 h1        1 MOL      0.001175
     57 N5          3.9360   -1.7370    3.7530 n         1 MOL     -0.382929
     58 C19         2.5900   -1.3940    3.2750 c3        1 MOL     -0.037329
     59 C20         2.5210   -0.9520    1.7600 c         1 MOL      0.134532
     60 O10         3.5280   -0.6230    1.0930 o         1 MOL     -0.649035
     61 C21         1.9880   -0.2920    4.1560 c3        1 MOL      0.030501
     62 C22         2.9460    0.8990    4.4200 c         1 MOL      0.619445
     63 O11         2.9550    1.3510    5.5590 o         1 MOL     -0.633358
     64 O12         3.6540    1.3050    3.4230 o         1 MOL     -0.633358
     65 H26         4.1800   -1.4590    4.6890 hn        1 MOL      0.287433
     66 H27         1.9300   -2.2410    3.4390 h1        1 MOL      0.079047
     67 H28         1.5480   -0.6630    5.0860 hc        1 MOL     -0.006664
     68 H29         1.1580    0.1140    3.5750 hc        1 MOL     -0.006664
     69 N6          1.3870   -1.0430    1.1140 n         1 MOL      0.162710
     70 C23         0.0620   -1.3270    1.5020 c3        1 MOL     -0.119688
     71 C24        -0.6010   -2.4830    0.6710 c         1 MOL      0.413685
     72 O13        -0.0340   -3.0010   -0.2700 o         1 MOL     -0.449117
     73 H30         1.4870   -0.7890    0.1510 hn        1 MOL      0.104991
     74 H31        -0.5960   -0.4550    1.4050 h1        1 MOL      0.077323
     75 H32         0.0090   -1.7240    2.5220 h1        1 MOL      0.077323
     76 N7         -1.8090   -2.9480    1.0650 n         1 MOL     -0.432007
     77 C25        -2.4500   -4.1680    0.5600 c3        1 MOL      0.242191
     78 C26        -2.8140   -4.1640   -0.9440 c         1 MOL      0.362748
     79 O14        -2.6080   -5.2330   -1.5220 o         1 MOL     -0.512509
     80 C27        -3.6830   -4.6120    1.5330 c3        1 MOL     -0.379671
     81 C28        -4.9450   -3.7510    1.6670 c3        1 MOL      0.253110
     82 C29        -6.0580   -4.4030    2.4110 c         1 MOL      0.516612
     83 N8         -7.2760   -4.0090    2.2660 n         1 MOL     -0.666236
     84 O15        -5.8940   -5.3750    3.1950 o         1 MOL     -0.598813
     85 H33        -2.2860   -2.3810    1.7570 hn        1 MOL      0.255673
     86 H34        -1.7760   -5.0230    0.6000 h1        1 MOL      0.068369
     87 H35        -3.2700   -4.7480    2.5330 hc        1 MOL      0.102135
     88 H36        -4.0420   -5.5430    1.0870 hc        1 MOL      0.102135
     89 H37        -5.3120   -3.4100    0.6990 hc        1 MOL     -0.040622
     90 H38        -4.7840   -2.8370    2.2390 hc        1 MOL     -0.040622
     91 H39        -7.5050   -3.2250    1.6770 hn        1 MOL      0.333518
     92 H40        -7.9880   -4.4750    2.8130 hn        1 MOL      0.333518
     93 N9         -3.3880   -3.1170   -1.5930 n         1 MOL     -0.028575
     94 C30        -3.7670   -3.1060   -2.9830 c3        1 MOL     -0.480416
     95 C31        -5.1140   -2.4220   -3.3350 c         1 MOL      0.761388
     96 O16        -5.6410   -2.7160   -4.3940 o         1 MOL     -0.565084
     97 C32        -2.6020   -2.6040   -3.8900 c3        1 MOL      0.127878
     98 C33        -1.3500   -3.4710   -3.8320 c3        1 MOL     -0.024857
     99 C34        -2.1220   -1.2260   -3.4870 c3        1 MOL     -0.024857
    100 H41        -3.5630   -2.2800   -1.0460 hn        1 MOL      0.122389
    101 H42        -3.9110   -4.1460   -3.2610 h1        1 MOL      0.188397
    102 H43        -2.8830   -2.5510   -4.9380 hc        1 MOL      0.014626
    103 H44        -1.4920   -4.5470   -3.9470 hc        1 MOL      0.003590
    104 H45        -0.7770   -3.2390   -4.7250 hc        1 MOL      0.003590
    105 H46        -0.7890   -3.1480   -2.9590 hc        1 MOL      0.003590
    106 H47        -1.3720   -0.9270   -4.2260 hc        1 MOL      0.003590
    107 H48        -2.9970   -0.5660   -3.5210 hc        1 MOL      0.003590
    108 H49        -1.7260   -1.1110   -2.4800 hc        1 MOL      0.003590
    109 N10        -5.7780   -1.8280   -2.3390 n         1 MOL     -0.526040
    110 C35        -7.0100   -1.0840   -2.5440 c3        1 MOL      0.006538
    111 C36        -7.0670    0.2750   -1.7450 c         1 MOL      0.593830
    112 O17        -8.0050    1.0130   -1.8920 o         1 MOL     -0.563528
    113 C37        -8.2860   -1.9850   -2.3270 c3        1 MOL     -0.316852
    114 C38        -8.6100   -2.4410   -0.9320 c         1 MOL      0.616492
    115 N11        -9.7660   -2.8950   -0.7580 n         1 MOL     -0.752902
    116 O18        -7.8250   -2.3770    0.0450 o         1 MOL     -0.500964
    117 H50        -5.2800   -1.7200   -1.4750 hn        1 MOL      0.294113
    118 H51        -6.9480   -0.7870   -3.5920 h1        1 MOL      0.097356
    119 H52        -8.1610   -2.8800   -2.9360 hc        1 MOL      0.128548
    120 H53        -9.1700   -1.5040   -2.7290 hc        1 MOL      0.128548
    121 H54       -10.3650   -2.8370   -1.5670 hn        1 MOL      0.362502
    122 H55       -10.1080   -3.1900    0.1500 hn        1 MOL      0.362502
    123 N12        -6.1620    0.6020   -0.8100 n         1 MOL     -0.463129
    124 C39        -6.1630    1.9620   -0.2590 c3        1 MOL      0.190450
    125 C40        -4.8120    2.6520   -0.3900 c         1 MOL      0.353937
    126 O19        -3.8350    1.9840   -0.5300 o         1 MOL     -0.439758
    127 C41        -6.4560    1.8740    1.2680 c3        1 MOL     -0.336447
    128 C42        -7.6850    1.0410    1.6610 ca        1 MOL      0.113307
    129 C43        -7.5690   -0.0560    2.4710 ca        1 MOL     -0.169504
    130 C44        -8.9350    1.4380    1.1900 ca        1 MOL     -0.169504
    131 C45        -8.6600   -0.8550    2.8090 ca        1 MOL     -0.214549
    132 C46       -10.0980    0.7080    1.5450 ca        1 MOL     -0.214549
    133 C47        -9.9300   -0.4340    2.3050 ca        1 MOL      0.289923
    134 O20       -10.9900   -1.1760    2.5840 oh        1 MOL     -0.495888
    135 H56        -5.4050   -0.0370   -0.6080 hn        1 MOL      0.263081
    136 H57        -6.7980    2.5530   -0.9180 h1        1 MOL      0.060604
    137 H58        -6.5860    2.8950    1.6290 hc        1 MOL      0.150044
    138 H59        -5.6090    1.3790    1.7550 hc        1 MOL      0.150044
    139 H60        -6.6300   -0.4040    2.8880 ha        1 MOL      0.133756
    140 H61        -8.9550    2.3710    0.6440 ha        1 MOL      0.133756
    141 H62        -8.5650   -1.7600    3.3770 ha        1 MOL      0.114881
    142 H63       -11.1020    1.0530    1.3230 ha        1 MOL      0.114881
    143 H64       -11.7820   -0.8440    2.1520 ho        1 MOL      0.359532
    144 N13        -4.8130    3.9680   -0.1670 n         1 MOL     -0.430526
    145 C48        -3.7790    4.9400    0.3570 c3        1 MOL      0.073691
    146 C49        -2.5060    5.0460   -0.5220 c         1 MOL      0.384260
    147 O21        -2.0820    6.1030   -0.8390 o         1 MOL     -0.499661
    148 C50        -3.5510    4.6610    1.8620 c3        1 MOL      0.290877
    149 C51        -2.8980    5.7650    2.6880 c3        1 MOL     -0.409100
    150 C52        -2.4980    5.2270    4.0960 c         1 MOL      0.818839
    151 O22        -1.7830    5.9440    4.8220 o         1 MOL     -0.746945
    152 O23        -2.9430    4.1120    4.5470 o         1 MOL     -0.746945
    153 H65        -5.7280    4.4090   -0.2170 hn        1 MOL      0.260446
    154 H66        -4.2200    5.9370    0.3780 h1        1 MOL      0.010521
    155 H67        -2.9350    3.7640    1.9400 hc        1 MOL     -0.077170
    156 H68        -4.4990    4.3800    2.3070 hc        1 MOL     -0.077170
    157 H69        -3.6940    6.4920    2.8240 hc        1 MOL      0.068480
    158 H70        -2.0490    6.1850    2.1470 hc        1 MOL      0.068480
    159 N14        -1.9970    3.8690   -1.0160 n         1 MOL     -0.087083
    160 C53        -0.8630    3.9450   -1.8860 c3        1 MOL     -0.273941
    161 C54        -1.2270    4.6820   -3.2400 c         1 MOL      0.472647
    162 O24        -0.3560    5.2130   -3.9560 o         1 MOL     -0.542006
    163 C55        -0.3380    2.5120   -2.2330 c3        1 MOL      0.112240
    164 C56         0.1200    1.5530   -1.1180 c3        1 MOL      0.500252
    165 C57         1.0110    2.0940   -0.0140 c         1 MOL      0.578879
    166 O25         2.1680    1.6930    0.0910 o         1 MOL     -0.659578
    167 O26         0.6230    3.0220    0.6820 o         1 MOL     -0.659578
    168 H71        -2.2960    2.9550   -0.6980 hn        1 MOL      0.177429
    169 H72        -0.0930    4.5060   -1.3420 h1        1 MOL      0.186061
    170 H73         0.4380    2.6150   -2.9960 hc        1 MOL     -0.063890
    171 H74        -1.1650    1.9860   -2.7220 hc        1 MOL     -0.063890
    172 H75         0.6200    0.7400   -1.6450 hc        1 MOL     -0.177690
    173 H76        -0.7840    1.1610   -0.6490 hc        1 MOL     -0.177690
    174 N15        -2.5260    4.8010   -3.5240 n         1 MOL     -0.169783
    175 C58        -3.0980    5.6680   -4.5270 c3        1 MOL     -0.238004
    176 H77        -3.4110    5.0730   -5.3850 h1        1 MOL      0.094338
    177 H78        -3.9620    6.1860   -4.1110 h1        1 MOL      0.094338
    178 H79        -2.3530    6.3980   -4.8440 h1        1 MOL      0.094338
    179 H80        -3.1580    4.3750   -2.8720 hn        1 MOL      0.153048
    180 Ca1         4.6360    1.8430    1.0500 Ca        1 MOL      1.730147
    181 O27         6.7900    0.8500    2.5450 oh        1 MOL     -0.825285
    182 H81         7.5350    0.2740    2.3800 ho        1 MOL      0.383466
    183 H82         6.4990    0.6130    3.4300 ho        1 MOL      0.383466
    184 O28         2.9880    4.1010    0.9450 oh        1 MOL     -0.825285
    185 H83         3.0530    5.0530    0.9210 ho        1 MOL      0.383466
    186 H84         2.0750    3.9090    0.7330 ho        1 MOL      0.383466
    187 O29         4.9600    3.6860    3.3440 oh        1 MOL     -0.825285
    188 H85         4.3950    4.4600    3.3390 ho        1 MOL      0.383466
    189 H86         4.4400    3.0200    3.8090 ho        1 MOL      0.383466
@<TRIPOS>BOND
     1    1    2 1   
     2    1    4 1   
     3    1    5 1   
     4    1    6 1   
     5    2    3 2   
     6    2    7 1   
     7    7    8 1   
     8    7   15 1   
     9    8    9 1   
    10    8   11 1   
    11    8   16 1   
    12    9   10 2   
    13    9   19 1   
    14   11   12 1   
    15   11   17 1   
    16   11   18 1   
    17   12   13 1   
    18   12   14 1   
    19   19   20 1   
    20   19   27 1   
    21   20   21 1   
    22   20   23 1   
    23   20   28 1   
    24   21   22 2   
    25   21   38 1   
    26   23   24 1   
    27   23   25 1   
    28   23   29 1   
    29   24   26 1   
    30   24   30 1   
    31   24   31 1   
    32   25   32 1   
    33   25   33 1   
    34   25   34 1   
    35   26   35 1   
    36   26   36 1   
    37   26   37 1   
    38   38   39 1   
    39   38   46 1   
    40   39   40 1   
    41   39   42 1   
    42   39   47 1   
    43   40   41 2   
    44   40   50 1   
    45   42   43 1   
    46   42   48 1   
    47   42   49 1   
    48   43   44 1   
    49   43   45 1   
    50   50   51 1   
    51   50   54 1   
    52   51   52 1   
    53   51   55 1   
    54   51   56 1   
    55   52   53 2   
    56   52   57 1   
    57   57   58 1   
    58   57   65 1   
    59   58   59 1   
    60   58   61 1   
    61   58   66 1   
    62   59   60 2   
    63   59   69 1   
    64   61   62 1   
    65   61   67 1   
    66   61   68 1   
    67   62   63 1   
    68   62   64 1   
    69   69   70 1   
    70   69   73 1   
    71   70   71 1   
    72   70   74 1   
    73   70   75 1   
    74   71   72 2   
    75   71   76 1   
    76   76   77 1   
    77   76   85 1   
    78   77   78 1   
    79   77   80 1   
    80   77   86 1   
    81   78   79 2   
    82   78   93 1   
    83   80   81 1   
    84   80   87 1   
    85   80   88 1   
    86   81   82 1   
    87   81   89 1   
    88   81   90 1   
    89   82   83 1   
    90   82   84 2   
    91   83   91 1   
    92   83   92 1   
    93   93   94 1   
    94   93  100 1   
    95   94   95 1   
    96   94   97 1   
    97   94  101 1   
    98   95   96 2   
    99   95  109 1   
   100   97   98 1   
   101   97   99 1   
   102   97  102 1   
   103   98  103 1   
   104   98  104 1   
   105   98  105 1   
   106   99  106 1   
   107   99  107 1   
   108   99  108 1   
   109  109  110 1   
   110  109  117 1   
   111  110  111 1   
   112  110  113 1   
   113  110  118 1   
   114  111  112 2   
   115  111  123 1   
   116  113  114 1   
   117  113  119 1   
   118  113  120 1   
   119  114  115 1   
   120  114  116 2   
   121  115  121 1   
   122  115  122 1   
   123  123  124 1   
   124  123  135 1   
   125  124  125 1   
   126  124  127 1   
   127  124  136 1   
   128  125  126 2   
   129  125  144 1   
   130  127  128 1   
   131  127  137 1   
   132  127  138 1   
   133  128  129 ar  
   134  128  130 ar  
   135  129  131 ar  
   136  129  139 1   
   137  130  132 ar  
   138  130  140 1   
   139  131  133 ar  
   140  131  141 1   
   141  132  133 ar  
   142  132  142 1   
   143  133  134 1   
   144  134  143 1   
   145  144  145 1   
   146  144  153 1   
   147  145  146 1   
   148  145  148 1   
   149  145  154 1   
   150  146  147 2   
   151  146  159 1   
   152  148  149 1   
   153  148  155 1   
   154  148  156 1   
   155  149  150 1   
   156  149  157 1   
   157  149  158 1   
   158  150  151 1   
   159  150  152 1   
   160  159  160 1   
   161  159  168 1   
   162  160  161 1   
   163  160  163 1   
   164  160  169 1   
   165  161  162 2   
   166  161  174 1   
   167  163  164 1   
   168  163  170 1   
   169  163  171 1   
   170  164  165 1   
   171  164  172 1   
   172  164  173 1   
   173  165  166 1   
   174  165  167 1   
   175  174  175 1   
   176  174  179 1   
   177  175  176 1   
   178  175  177 1   
   179  175  178 1   
   180  181  182 1   
   181  181  183 1   
   182  184  185 1   
   183  184  186 1   
   184  187  188 1   
   185  187  189 1   
@<TRIPOS>SUBSTRUCTURE
     1 MOL         1 TEMP              0 ****  ****    0 ROOT
