@<TRIPOS>MOLECULE
MOL
  178   175     1     0     0
SMALL
resp


@<TRIPOS>ATOM
      1 C1          9.8150   -4.1470    4.8560 c3        1 MOL     -0.359666
      2 C2          8.9910   -4.2580    3.5540 c         1 MOL      0.823190
      3 O1          8.0210   -4.9050    3.4840 o         1 MOL     -0.582634
      4 H1         10.4260   -5.0420    4.9760 hc        1 MOL      0.074710
      5 H2         10.4610   -3.2700    4.8040 hc        1 MOL      0.074710
      6 H3          9.1400   -4.0530    5.7060 hc        1 MOL      0.074710
      7 N1          9.3950   -3.6470    2.4290 n         1 MOL     -0.616063
      8 C3         10.6310   -2.8190    2.1850 c3        1 MOL      0.089706
      9 C4         11.0330   -2.8400    0.6290 c         1 MOL      0.466772
     10 O2         10.8120   -3.8750   -0.0530 o         1 MOL     -0.474148
     11 C5         10.5330   -1.4050    2.7790 c3        1 MOL      0.006835
     12 C6          9.3310   -0.7240    2.2930 c         1 MOL      0.553399
     13 O3          8.2240   -0.8280    2.9030 o         1 MOL     -0.647808
     14 O4          9.3500   -0.1380    1.1970 o         1 MOL     -0.647808
     15 H4          8.6800   -3.6860    1.7270 hn        1 MOL      0.336766
     16 H5         11.5590   -3.2220    2.5800 h1        1 MOL      0.052626
     17 H6         11.3920   -0.8000    2.4910 hc        1 MOL     -0.034905
     18 H7         10.4220   -1.3970    3.8550 hc        1 MOL     -0.034905
     19 N2         11.5980   -1.7350    0.0990 n         1 MOL     -0.571176
     20 C7         11.8700   -1.5050   -1.3370 c3        1 MOL      0.553763
     21 C8         10.6180   -1.6210   -2.2100 c         1 MOL      0.152673
     22 O5         10.6310   -2.2430   -3.2810 o         1 MOL     -0.491672
     23 C9         13.1010   -2.3450   -1.7640 c3        1 MOL     -0.573579
     24 H8         11.7260   -0.9320    0.6990 hn        1 MOL      0.305866
     25 H9         12.1900   -0.4660   -1.4130 h1        1 MOL     -0.045169
     26 H10        13.3110   -2.0980   -2.7960 hc        1 MOL      0.146477
     27 H11        13.9380   -2.0510   -1.1340 hc        1 MOL      0.146477
     28 H12        12.7840   -3.3890   -1.7540 hc        1 MOL      0.146477
     29 N3          9.4600   -1.2670   -1.6570 n         1 MOL      0.012474
     30 C10         8.1750   -1.3440   -2.2800 c3        1 MOL      0.152697
     31 C11         7.2020   -0.1600   -2.1900 c         1 MOL      0.187960
     32 O6          7.5300    0.8250   -1.4840 o         1 MOL     -0.453572
     33 C12         7.3850   -2.5420   -1.5870 c3        1 MOL     -0.363116
     34 C13         7.1000   -2.5340   -0.0330 c         1 MOL      0.673719
     35 O7          7.0900   -3.6070    0.5980 o         1 MOL     -0.616912
     36 O8          6.8480   -1.4980    0.5630 o         1 MOL     -0.616912
     37 H13         9.5990   -0.8050   -0.7710 hn        1 MOL     -0.022076
     38 H14         8.3280   -1.6480   -3.3200 h1        1 MOL      0.044158
     39 H15         7.8830   -3.4810   -1.8390 hc        1 MOL      0.104594
     40 H16         6.4620   -2.6420   -2.1600 hc        1 MOL      0.104594
     41 N4          6.0960   -0.1230   -2.9790 n         1 MOL     -0.189672
     42 C14         5.1810    1.0080   -3.0130 c3        1 MOL     -0.255120
     43 C15         4.7410    1.5700   -1.6590 c         1 MOL      0.663338
     44 O9          4.9380    1.0210   -0.5560 o         1 MOL     -0.530323
     45 H17         5.9880   -0.7470   -3.7620 hn        1 MOL      0.286870
     46 H18         4.2900    0.8050   -3.6000 h1        1 MOL      0.118292
     47 H19         5.7340    1.8580   -3.4120 h1        1 MOL      0.118292
     48 N5          4.1330    2.7470   -1.8050 n         1 MOL     -0.530680
     49 C16         3.8070    3.7900   -0.7800 c3        1 MOL      0.200333
     50 C17         2.3570    4.3840   -0.8770 c         1 MOL      0.571359
     51 O10         1.9940    5.2350   -0.0520 o         1 MOL     -0.581925
     52 C18         4.8450    4.8440   -0.9010 c3        1 MOL     -0.428443
     53 C19         6.1800    4.2340   -0.5020 c         1 MOL      0.785917
     54 N6          7.2730    4.4690   -1.2860 n         1 MOL     -0.825539
     55 O11         6.3180    3.4590    0.4520 o         1 MOL     -0.700491
     56 H20         4.0470    3.1220   -2.7450 hn        1 MOL      0.275000
     57 H21         3.8120    3.3670    0.2190 h1        1 MOL      0.050625
     58 H22         4.6670    5.5200   -0.0640 hc        1 MOL      0.120660
     59 H23         4.8250    5.3790   -1.8530 hc        1 MOL      0.120660
     60 H24         7.0870    5.0060   -2.1210 hn        1 MOL      0.369869
     61 H25         8.1560    3.9840   -1.2590 hn        1 MOL      0.369869
     62 N7          1.4590    3.9520   -1.7300 n         1 MOL     -0.360506
     63 C20         0.0730    4.3500   -1.6520 c3        1 MOL     -0.084327
     64 C21        -0.8410    3.4250   -2.2900 c         1 MOL      0.624912
     65 O12        -0.4260    2.5890   -3.1070 o         1 MOL     -0.509254
     66 H26         1.6750    3.1610   -2.3270 hn        1 MOL      0.218435
     67 H27        -0.0960    5.3380   -2.1020 h1        1 MOL      0.114289
     68 H28        -0.2600    4.3220   -0.6110 h1        1 MOL      0.114289
     69 N8         -2.1640    3.4210   -2.0400 n         1 MOL     -0.554855
     70 C22        -2.9120    4.1490   -1.0020 c3        1 MOL     -0.228122
     71 C23        -3.8800    3.1290   -0.4090 c         1 MOL      0.757345
     72 O13        -4.8080    2.6580   -1.0050 o         1 MOL     -0.549614
     73 C24        -3.5630    5.4410   -1.4440 c3        1 MOL      0.421989
     74 C25        -4.3240    5.9990   -0.2760 c3        1 MOL     -0.299363
     75 O14        -2.4920    6.2540   -1.7690 oh        1 MOL     -0.652304
     76 H29        -2.7120    2.6990   -2.4860 hn        1 MOL      0.340471
     77 H30        -2.2150    4.3260   -0.1790 h1        1 MOL      0.116147
     78 H31        -4.3010    5.2790   -2.2190 h1        1 MOL      0.002849
     79 H32        -2.0930    6.0510   -2.6120 ho        1 MOL      0.388825
     80 H33        -3.7750    6.0880    0.6530 hc        1 MOL      0.086867
     81 H34        -4.7540    6.9730   -0.4950 hc        1 MOL      0.086867
     82 H35        -5.1740    5.3220   -0.1870 hc        1 MOL      0.086867
     83 N9         -3.7790    2.8040    0.9220 n         1 MOL     -0.565947
     84 C26        -4.5930    1.7740    1.6200 c3        1 MOL      0.165179
     85 C27        -5.1900    2.5410    2.7710 c         1 MOL      0.337739
     86 O15        -4.4750    3.0320    3.7170 o         1 MOL     -0.548763
     87 C28        -3.6570    0.6000    2.0950 c3        1 MOL      0.292322
     88 C29        -2.7540    0.1540    0.8940 c3        1 MOL     -0.014375
     89 C30        -4.4500   -0.3850    2.8160 c3        1 MOL     -0.337858
     90 C31        -1.8850   -1.0450    1.1460 c3        1 MOL     -0.454603
     91 H36        -3.0660    3.1810    1.5250 hn        1 MOL      0.253132
     92 H37        -5.3990    1.3050    1.0490 h1        1 MOL     -0.010742
     93 H38        -2.9120    1.0290    2.7690 hc        1 MOL     -0.062098
     94 H39        -2.1360    1.0240    0.6680 hc        1 MOL      0.029179
     95 H40        -3.4280    0.0600    0.0430 hc        1 MOL      0.029179
     96 H41        -3.8140   -1.1700    3.2050 hc        1 MOL      0.074315
     97 H42        -4.9120    0.1160    3.6640 hc        1 MOL      0.074315
     98 H43        -5.3340   -0.6430    2.2270 hc        1 MOL      0.074315
     99 H44        -1.3430   -0.7850    2.0600 hc        1 MOL      0.124843
    100 H45        -2.4540   -1.9820    1.2070 hc        1 MOL      0.124843
    101 H46        -1.0970   -1.2040    0.4120 hc        1 MOL      0.124843
    102 N10        -6.5290    2.6390    2.8630 n         1 MOL     -0.351732
    103 C32        -7.6900    2.1400    2.0800 c3        1 MOL      0.168735
    104 C33        -7.9270    0.6390    1.9430 c         1 MOL      0.759495
    105 O16        -7.6170   -0.1670    2.8210 o         1 MOL     -0.553220
    106 C34        -8.9950    2.9370    2.4030 c3        1 MOL     -0.303540
    107 C35        -9.3340    3.1890    3.8880 c         1 MOL      0.696110
    108 O17       -10.4900    3.5950    4.0880 o         1 MOL     -0.700327
    109 O18        -8.6510    2.7960    4.8600 o         1 MOL     -0.700327
    110 H47        -6.8360    3.0470    3.7300 hn        1 MOL      0.253359
    111 H48        -7.4210    2.4660    1.0760 h1        1 MOL      0.010959
    112 H49        -9.8440    2.3790    2.0140 hc        1 MOL      0.056811
    113 H50        -9.0890    3.9000    1.9110 hc        1 MOL      0.056811
    114 N11        -8.7930    0.2860    0.9770 n         1 MOL     -0.577290
    115 C36        -9.1760   -1.0710    0.5690 c3        1 MOL      0.074302
    116 C37        -9.7170   -0.9900   -0.8610 c         1 MOL      0.428671
    117 O19       -10.6670   -0.2040   -1.0130 o         1 MOL     -0.514863
    118 C38       -10.2970   -1.6750    1.4020 c3        1 MOL     -0.171598
    119 C39       -10.9770   -2.9350    0.8740 ca        1 MOL      0.027442
    120 C40       -12.1010   -2.8140    0.0600 ca        1 MOL     -0.123758
    121 C41       -10.5100   -4.2080    1.2640 ca        1 MOL     -0.123758
    122 C42       -12.8260   -3.9420   -0.2530 ca        1 MOL     -0.064098
    123 C43       -11.2010   -5.3000    0.8240 ca        1 MOL     -0.064098
    124 C44       -12.3330   -5.1690    0.1430 ca        1 MOL     -0.175748
    125 H51        -9.1320    0.9480    0.3060 hn        1 MOL      0.273591
    126 H52        -8.2980   -1.7030    0.7320 h1        1 MOL      0.046261
    127 H53       -11.1200   -0.9720    1.5610 hc        1 MOL      0.107797
    128 H54        -9.8820   -1.8420    2.3920 hc        1 MOL      0.107797
    129 H55       -12.4100   -1.8890   -0.3970 ha        1 MOL      0.112159
    130 H56        -9.6180   -4.3350    1.8690 ha        1 MOL      0.112159
    131 H57       -13.6690   -3.8220   -0.9160 ha        1 MOL      0.081619
    132 H58       -10.7770   -6.2420    1.1550 ha        1 MOL      0.081619
    133 H59       -12.9310   -6.0240   -0.1330 ha        1 MOL      0.090809
    134 N12        -9.2310   -1.7120   -1.8590 n         1 MOL     -0.161675
    135 C45        -8.2770   -2.7540   -1.7490 c3        1 MOL      0.557265
    136 C46        -6.8670   -2.2110   -1.3410 c         1 MOL      0.520350
    137 O20        -6.6630   -1.0240   -1.1100 o         1 MOL     -0.549954
    138 C47        -8.2700   -3.3340   -3.0900 c3        1 MOL     -0.397288
    139 C48        -9.6860   -3.1170   -3.6530 c3        1 MOL      0.198036
    140 C49        -9.9520   -1.7310   -3.1530 c3        1 MOL     -0.202275
    141 H60        -8.5650   -3.4970   -1.0040 h1        1 MOL     -0.137140
    142 H61        -7.5340   -2.7960   -3.6800 hc        1 MOL      0.088103
    143 H62        -8.0380   -4.3950   -3.0730 hc        1 MOL      0.088103
    144 H63        -9.7250   -3.1960   -4.7390 hc        1 MOL     -0.017504
    145 H64       -10.4150   -3.8270   -3.2890 hc        1 MOL     -0.017504
    146 H65        -9.3970   -1.0660   -3.8060 h1        1 MOL      0.102049
    147 H66       -11.0320   -1.5670   -3.1160 h1        1 MOL      0.102049
    148 N13        -5.8310   -3.0780   -1.4590 n         1 MOL     -0.818687
    149 C50        -4.4080   -2.6230   -1.2070 c3        1 MOL      0.709916
    150 C51        -3.4840   -3.6190   -0.4820 c         1 MOL      0.201007
    151 O21        -2.3340   -3.7930   -0.8880 o         1 MOL     -0.474929
    152 C52        -3.7700   -2.2580   -2.5670 c3        1 MOL     -0.430575
    153 C53        -2.8150   -1.0460   -2.6380 c3        1 MOL     -0.046294
    154 C54        -2.0760   -0.9180   -3.9850 c         1 MOL      0.747773
    155 O22        -2.5630   -0.3550   -4.9530 o         1 MOL     -0.731581
    156 O23        -0.8940   -1.3470   -3.9800 o         1 MOL     -0.731581
    157 H67        -5.9470   -4.0140   -1.8120 hn        1 MOL      0.327423
    158 H68        -4.4680   -1.7180   -0.5870 h1        1 MOL      0.076675
    159 H69        -4.5470   -2.0840   -3.3060 hc        1 MOL      0.103876
    160 H70        -3.1980   -3.0680   -3.0160 hc        1 MOL      0.103876
    161 H71        -2.0910   -1.0940   -1.8350 hc        1 MOL     -0.017930
    162 H72        -3.2960   -0.0900   -2.4340 hc        1 MOL     -0.017930
    163 N14        -3.8340   -4.2030    0.6650 n         1 MOL     -0.332390
    164 C55        -5.0670   -3.9780    1.4150 c3        1 MOL      0.013895
    165 H73        -5.5700   -4.9320    1.5810 h1        1 MOL      0.021989
    166 H74        -4.8300   -3.5200    2.3750 h1        1 MOL      0.021989
    167 H75        -5.7210   -3.3170    0.8480 h1        1 MOL      0.021989
    168 H76        -3.1130   -4.7350    1.1170 hn        1 MOL      0.283587
    169 Ca1         7.1470    0.9860    1.1550 Ca        1 MOL      1.695349
    170 O24         7.2740    2.5510    3.2970 oh        1 MOL     -0.805722
    171 H77         7.7190    3.1840    3.8580 ho        1 MOL      0.403535
    172 H78         6.3680    2.8250    3.3000 ho        1 MOL      0.403535
    173 O25         9.2940    2.6800    0.9940 oh        1 MOL     -0.805722
    174 H79         9.3350    3.6360    0.9640 ho        1 MOL      0.403535
    175 H80         9.8680    2.4350    1.7150 ho        1 MOL      0.403535
    176 O26         4.8310    0.7750    2.4610 oh        1 MOL     -0.805722
    177 H81         4.5260    1.5420    2.9500 ho        1 MOL      0.403535
    178 H82         4.0910    0.5580    1.8850 ho        1 MOL      0.403535
@<TRIPOS>BOND
     1    1    2 1   
     2    1    4 1   
     3    1    5 1   
     4    1    6 1   
     5    2    3 2   
     6    2    7 1   
     7    7    8 1   
     8    7   15 1   
     9    8    9 1   
    10    8   11 1   
    11    8   16 1   
    12    9   10 2   
    13    9   19 1   
    14   11   12 1   
    15   11   17 1   
    16   11   18 1   
    17   12   13 1   
    18   12   14 1   
    19   19   20 1   
    20   19   24 1   
    21   20   21 1   
    22   20   23 1   
    23   20   25 1   
    24   21   22 2   
    25   21   29 1   
    26   23   26 1   
    27   23   27 1   
    28   23   28 1   
    29   29   30 1   
    30   29   37 1   
    31   30   31 1   
    32   30   33 1   
    33   30   38 1   
    34   31   32 2   
    35   31   41 1   
    36   33   34 1   
    37   33   39 1   
    38   33   40 1   
    39   34   35 1   
    40   34   36 1   
    41   41   42 1   
    42   41   45 1   
    43   42   43 1   
    44   42   46 1   
    45   42   47 1   
    46   43   44 2   
    47   43   48 1   
    48   48   49 1   
    49   48   56 1   
    50   49   50 1   
    51   49   52 1   
    52   49   57 1   
    53   50   51 2   
    54   50   62 1   
    55   52   53 1   
    56   52   58 1   
    57   52   59 1   
    58   53   54 1   
    59   53   55 2   
    60   54   60 1   
    61   54   61 1   
    62   62   63 1   
    63   62   66 1   
    64   63   64 1   
    65   63   67 1   
    66   63   68 1   
    67   64   65 2   
    68   64   69 1   
    69   69   70 1   
    70   69   76 1   
    71   70   71 1   
    72   70   73 1   
    73   70   77 1   
    74   71   72 2   
    75   71   83 1   
    76   73   74 1   
    77   73   75 1   
    78   73   78 1   
    79   74   80 1   
    80   74   81 1   
    81   74   82 1   
    82   75   79 1   
    83   83   84 1   
    84   83   91 1   
    85   84   85 1   
    86   84   87 1   
    87   84   92 1   
    88   85   86 2   
    89   85  102 1   
    90   87   88 1   
    91   87   89 1   
    92   87   93 1   
    93   88   90 1   
    94   88   94 1   
    95   88   95 1   
    96   89   96 1   
    97   89   97 1   
    98   89   98 1   
    99   90   99 1   
   100   90  100 1   
   101   90  101 1   
   102  102  103 1   
   103  102  110 1   
   104  103  104 1   
   105  103  106 1   
   106  103  111 1   
   107  104  105 2   
   108  104  114 1   
   109  106  107 1   
   110  106  112 1   
   111  106  113 1   
   112  107  108 1   
   113  107  109 1   
   114  114  115 1   
   115  114  125 1   
   116  115  116 1   
   117  115  118 1   
   118  115  126 1   
   119  116  117 2   
   120  116  134 1   
   121  118  119 1   
   122  118  127 1   
   123  118  128 1   
   124  119  120 ar  
   125  119  121 ar  
   126  120  122 ar  
   127  120  129 1   
   128  121  123 ar  
   129  121  130 1   
   130  122  124 ar  
   131  122  131 1   
   132  123  124 ar  
   133  123  132 1   
   134  124  133 1   
   135  134  135 1   
   136  134  140 1   
   137  135  136 1   
   138  135  138 1   
   139  135  141 1   
   140  136  137 2   
   141  136  148 1   
   142  138  139 1   
   143  138  142 1   
   144  138  143 1   
   145  139  140 1   
   146  139  144 1   
   147  139  145 1   
   148  140  146 1   
   149  140  147 1   
   150  148  149 1   
   151  148  157 1   
   152  149  150 1   
   153  149  152 1   
   154  149  158 1   
   155  150  151 2   
   156  150  163 1   
   157  152  153 1   
   158  152  159 1   
   159  152  160 1   
   160  153  154 1   
   161  153  161 1   
   162  153  162 1   
   163  154  155 1   
   164  154  156 1   
   165  163  164 1   
   166  163  168 1   
   167  164  165 1   
   168  164  166 1   
   169  164  167 1   
   170  170  171 1   
   171  170  172 1   
   172  173  174 1   
   173  173  175 1   
   174  176  177 1   
   175  176  178 1   
@<TRIPOS>SUBSTRUCTURE
     1 MOL         1 TEMP              0 ****  ****    0 ROOT
