@<TRIPOS>MOLECULE
MOL
  204   195     1     0     0
SMALL
resp


@<TRIPOS>ATOM
      1 C1          1.2480   -4.8890    0.4820 c3        1 MOL     -0.526787
      2 C2          0.2730   -3.7330    0.3040 c         1 MOL      0.689397
      3 O1          0.6530   -2.6490   -0.0220 o         1 MOL     -0.616636
      4 H1          1.1380   -5.5880   -0.3470 hc        1 MOL      0.128024
      5 H2          2.2680   -4.5060    0.5000 hc        1 MOL      0.128024
      6 H3          1.0370   -5.4030    1.4200 hc        1 MOL      0.128024
      7 N1         -1.0150   -3.8550    0.5400 n         1 MOL     -0.319495
      8 C3         -1.7560   -4.8040    1.4140 c3        1 MOL      0.050056
      9 C4         -2.7090   -5.7520    0.6260 c         1 MOL      0.373538
     10 O2         -3.1580   -6.7760    1.1390 o         1 MOL     -0.530437
     11 C5         -2.4180   -4.1270    2.6430 c3        1 MOL     -0.127601
     12 C6         -1.5050   -3.2450    3.4800 c         1 MOL      0.775734
     13 O3         -1.2440   -3.6860    4.5950 o         1 MOL     -0.690246
     14 O4         -1.1440   -2.2130    2.9460 o         1 MOL     -0.690246
     15 H4         -1.5010   -2.9800    0.4200 hn        1 MOL      0.243521
     16 H5         -1.0690   -5.5170    1.8750 h1        1 MOL      0.033911
     17 H6         -2.9800   -4.8590    3.2390 hc        1 MOL      0.027914
     18 H7         -3.1710   -3.4890    2.1920 hc        1 MOL      0.027914
     19 N2         -2.9490   -5.3240   -0.5860 n         1 MOL     -0.081838
     20 C7         -3.9090   -6.0110   -1.5080 c3        1 MOL     -0.194588
     21 C8         -5.3730   -5.7100   -1.1050 c         1 MOL      0.464929
     22 O5         -6.2290   -6.5940   -1.3240 o         1 MOL     -0.562046
     23 C9         -3.5300   -5.6800   -2.9670 c3        1 MOL      0.324285
     24 C10        -3.7990   -4.1660   -3.2120 c3        1 MOL      0.096203
     25 C11        -2.0510   -6.1260   -3.2420 c3        1 MOL     -0.337792
     26 C12        -3.3680   -3.7160   -4.6170 c3        1 MOL     -0.396006
     27 H8         -2.6150   -4.3960   -0.7750 hn        1 MOL     -0.094705
     28 H9         -3.8500   -7.0990   -1.4800 h1        1 MOL      0.102075
     29 H10        -4.2410   -6.1870   -3.6100 hc        1 MOL     -0.059117
     30 H11        -3.2260   -3.5970   -2.4850 hc        1 MOL      0.040404
     31 H12        -4.8480   -3.9470   -3.0190 hc        1 MOL      0.040404
     32 H13        -1.3860   -5.2650   -3.2050 hc        1 MOL      0.072898
     33 H14        -1.7990   -6.8020   -2.4200 hc        1 MOL      0.072898
     34 H15        -1.9950   -6.6270   -4.2070 hc        1 MOL      0.072898
     35 H16        -3.5880   -2.6500   -4.6640 hc        1 MOL      0.083551
     36 H17        -2.2900   -3.8310   -4.7430 hc        1 MOL      0.083551
     37 H18        -3.8640   -4.2820   -5.3950 hc        1 MOL      0.083551
     38 N3         -5.7170   -4.5480   -0.4970 n         1 MOL     -0.169572
     39 C13        -7.0260   -4.0200   -0.1630 c3        1 MOL     -0.080405
     40 C14        -6.9860   -3.2600    1.1460 c         1 MOL      0.406328
     41 O6         -5.8840   -3.0100    1.6720 o         1 MOL     -0.435980
     42 C15        -7.4570   -3.0940   -1.3780 c3        1 MOL     -0.001682
     43 C16        -8.9430   -3.2500   -1.6020 c         1 MOL      0.618645
     44 O7         -9.3950   -4.1930   -2.2760 o         1 MOL     -0.642900
     45 O8         -9.7230   -2.5080   -0.9500 o         1 MOL     -0.642900
     46 H19        -4.9580   -3.8990   -0.4270 hn        1 MOL      0.196853
     47 H20        -7.8180   -4.7660   -0.2570 h1        1 MOL      0.101517
     48 H21        -6.9150   -3.3190   -2.2970 hc        1 MOL     -0.009190
     49 H22        -7.3350   -2.0320   -1.1670 hc        1 MOL     -0.009190
     50 N4         -8.2050   -2.8340    1.5990 n         1 MOL     -0.362789
     51 C17        -8.2980   -2.0160    2.8660 c3        1 MOL     -0.178735
     52 C18        -7.8900   -0.5730    2.6630 c         1 MOL      0.610529
     53 O9         -7.1460   -0.0230    3.4710 o         1 MOL     -0.556756
     54 H23        -9.0520   -3.0380    1.0710 hn        1 MOL      0.298797
     55 H24        -7.5360   -2.3890    3.5460 h1        1 MOL      0.104509
     56 H25        -9.3250   -2.0790    3.2300 h1        1 MOL      0.104509
     57 N5         -7.8650    0.0400    1.4400 n         1 MOL     -0.339426
     58 C19        -7.2680    1.3000    0.9970 c3        1 MOL      0.179087
     59 C20        -6.3910    1.1910   -0.2940 c         1 MOL      0.497641
     60 O10        -6.5620    0.2140   -1.0550 o         1 MOL     -0.534016
     61 C21        -8.2860    2.4490    0.9160 c3        1 MOL     -0.198255
     62 C22        -9.3380    2.3860    2.0670 c         1 MOL      0.633872
     63 O11       -10.5310    2.2880    1.7020 o         1 MOL     -0.649226
     64 O12        -8.9510    2.5780    3.2230 o         1 MOL     -0.649226
     65 H26        -8.2270   -0.4860    0.6610 hn        1 MOL      0.198713
     66 H27        -6.6680    1.5850    1.8630 h1        1 MOL      0.035873
     67 H28        -8.7530    2.4190   -0.0750 hc        1 MOL      0.023504
     68 H29        -7.7400    3.3870    0.8120 hc        1 MOL      0.023504
     69 N6         -5.5070    2.1140   -0.6180 n         1 MOL     -0.488574
     70 C23        -5.0410    3.1170    0.3080 c3        1 MOL      0.107230
     71 C24        -4.8630    4.5500   -0.2560 c         1 MOL      0.581957
     72 O13        -5.2470    4.7230   -1.4070 o         1 MOL     -0.534445
     73 H30        -5.0880    2.0470   -1.5280 hn        1 MOL      0.313872
     74 H31        -4.0560    2.7250    0.5500 h1        1 MOL      0.049389
     75 H32        -5.6350    3.1550    1.2270 h1        1 MOL      0.049389
     76 N7         -4.1830    5.5530    0.4790 n         1 MOL     -0.568030
     77 C25        -3.4050    5.4200    1.7390 c3        1 MOL      0.190193
     78 C26        -2.4970    4.2350    1.7090 c         1 MOL      0.289920
     79 O14        -2.4980    3.3840    2.6110 o         1 MOL     -0.488151
     80 C27        -4.2630    5.5350    3.0440 c3        1 MOL     -0.229355
     81 C28        -4.8800    6.9640    3.0410 c3        1 MOL     -0.164406
     82 C29        -5.6230    7.2020    4.3790 c         1 MOL      0.714508
     83 N8         -6.8340    6.8390    4.6050 n         1 MOL     -0.847339
     84 O15        -4.9850    7.6940    5.2810 o         1 MOL     -0.608172
     85 H33        -3.9660    6.3950   -0.0380 hn        1 MOL      0.292722
     86 H34        -2.7670    6.2980    1.7560 h1        1 MOL      0.066985
     87 H35        -3.7300    5.3820    3.9790 hc        1 MOL      0.129225
     88 H36        -5.1090    4.8820    2.8550 hc        1 MOL      0.129225
     89 H37        -5.6810    6.9260    2.3060 hc        1 MOL      0.034212
     90 H38        -4.1720    7.7580    2.7790 hc        1 MOL      0.034212
     91 H39        -7.3680    6.3200    3.9200 hn        1 MOL      0.392656
     92 H40        -7.1760    6.7570    5.5550 hn        1 MOL      0.392656
     93 N9         -1.7570    4.1010    0.6130 n         1 MOL     -0.209110
     94 C30        -0.8470    2.9970    0.2810 c3        1 MOL     -0.013647
     95 C31        -1.1100    2.5310   -1.1190 c         1 MOL      0.433516
     96 O16        -1.3710    3.3160   -2.0570 o         1 MOL     -0.539095
     97 C32         0.6670    3.1990    0.5540 c3        1 MOL      0.027757
     98 C33         0.9530    3.6480    2.0050 c3        1 MOL     -0.339578
     99 C34         1.2000    4.3380   -0.3450 c3        1 MOL     -0.339578
    100 H41        -1.9160    4.7460   -0.1530 hn        1 MOL      0.198373
    101 H42        -1.1320    2.1030    0.8350 h1        1 MOL      0.117969
    102 H43         1.2280    2.2690    0.4370 hc        1 MOL      0.105186
    103 H44         2.0030    3.6020    2.3070 hc        1 MOL      0.106042
    104 H45         0.6700    4.6820    2.2040 hc        1 MOL      0.106042
    105 H46         0.4700    2.9990    2.7320 hc        1 MOL      0.106042
    106 H47         2.2780    4.4330   -0.1960 hc        1 MOL      0.106042
    107 H48         1.0600    4.0980   -1.3960 hc        1 MOL      0.106042
    108 H49         0.5340    5.2030   -0.3140 hc        1 MOL      0.106042
    109 N10        -1.1120    1.2030   -1.2880 n         1 MOL     -0.282586
    110 C35        -1.2000    0.6420   -2.5980 c3        1 MOL     -0.036948
    111 C36         0.0860    0.7610   -3.4030 c         1 MOL      0.566020
    112 O17         0.1280    0.4050   -4.6010 o         1 MOL     -0.558461
    113 C37        -1.5580   -0.8890   -2.5200 c3        1 MOL     -0.049120
    114 C38        -2.7520   -1.1820   -1.5630 c         1 MOL      0.525828
    115 N11        -3.9300   -0.6190   -1.8010 n         1 MOL     -0.817098
    116 O18        -2.7030   -1.9330   -0.6130 o         1 MOL     -0.398437
    117 H50        -0.9760    0.7130   -0.4160 hn        1 MOL      0.261516
    118 H51        -1.9780    1.1490   -3.1650 h1        1 MOL      0.102194
    119 H52        -0.6940   -1.4580   -2.2010 hc        1 MOL      0.035440
    120 H53        -1.8250   -1.1670   -3.5370 hc        1 MOL      0.035440
    121 H54        -4.0690    0.0450   -2.5580 hn        1 MOL      0.378033
    122 H55        -4.6150   -0.8300   -1.0860 hn        1 MOL      0.378033
    123 N12         1.0830    1.4950   -2.8420 n         1 MOL     -0.195892
    124 C39         2.3550    1.5120   -3.5860 c3        1 MOL     -0.042131
    125 C40         3.5080    1.7200   -2.5820 c         1 MOL      0.607271
    126 O19         3.3050    2.2890   -1.4480 o         1 MOL     -0.486765
    127 C41         2.4220    2.6280   -4.6420 c3        1 MOL     -0.031743
    128 C42         2.4500    4.0560   -4.2170 ca        1 MOL     -0.047481
    129 C43         3.6270    4.8400   -4.1110 ca        1 MOL      0.027130
    130 C44         1.2140    4.6370   -3.9620 ca        1 MOL      0.027130
    131 C45         3.5100    6.1960   -3.7810 ca        1 MOL     -0.430648
    132 C46         1.0950    5.9970   -3.6110 ca        1 MOL     -0.430648
    133 C47         2.2840    6.8220   -3.5010 ca        1 MOL      0.416626
    134 O20         2.1840    8.1220   -3.0910 oh        1 MOL     -0.494019
    135 H56         1.1020    1.8550   -1.8980 hn        1 MOL      0.023073
    136 H57         2.4400    0.4990   -3.9750 h1        1 MOL      0.068148
    137 H58         1.5770    2.4900   -5.3180 hc        1 MOL      0.013127
    138 H59         3.3650    2.5000   -5.1590 hc        1 MOL      0.013127
    139 H60         4.6160    4.4170   -4.2470 ha        1 MOL      0.100339
    140 H61         0.2940    4.0860   -4.0680 ha        1 MOL      0.100339
    141 H62         4.3340    6.8640   -3.5690 ha        1 MOL      0.193983
    142 H63         0.1750    6.5010   -3.3350 ha        1 MOL      0.193983
    143 H64         1.2590    8.3750   -2.9860 ho        1 MOL      0.344371
    144 N13         4.6780    1.1720   -2.9410 n         1 MOL     -0.334535
    145 C48         5.8280    1.1400   -2.0410 c3        1 MOL     -0.587947
    146 C49         6.4260   -0.2940   -2.0530 c         1 MOL      0.996503
    147 O21         7.3220   -0.5770   -2.8450 o         1 MOL     -0.565418
    148 C50         6.7390    2.2100   -2.5070 c3        1 MOL      0.265413
    149 C51         7.8960    2.4810   -1.5040 c3        1 MOL     -0.554984
    150 C52         8.5620    3.9010   -1.6890 c         1 MOL      0.719390
    151 O22         9.8330    4.0010   -1.7120 o         1 MOL     -0.717426
    152 O23         7.7800    4.9190   -1.7020 o         1 MOL     -0.717426
    153 H65         4.6620    0.5900   -3.7730 hn        1 MOL      0.275872
    154 H66         5.5730    1.4430   -1.0260 h1        1 MOL      0.196548
    155 H67         6.2080    3.1280   -2.7260 hc        1 MOL     -0.001805
    156 H68         7.3060    1.9470   -3.4030 hc        1 MOL     -0.001805
    157 H69         8.6060    1.6460   -1.4670 hc        1 MOL      0.176137
    158 H70         7.4690    2.4470   -0.5000 hc        1 MOL      0.176137
    159 N14         5.7730   -1.2070   -1.3030 n         1 MOL     -0.831939
    160 C53         5.9070   -2.6410   -1.4850 c3        1 MOL      0.065075
    161 C54         5.4290   -3.1310   -2.7850 c         1 MOL      0.375869
    162 O24         6.0480   -4.0870   -3.3030 o         1 MOL     -0.519872
    163 C55         5.0830   -3.3140   -0.4440 c3        1 MOL     -0.467821
    164 C56         5.5990   -2.9920    0.9590 c3        1 MOL     -0.036052
    165 C57         6.9770   -3.5160    1.2260 c         1 MOL      0.594992
    166 O25         7.8580   -2.7200    1.6950 o         1 MOL     -0.636488
    167 O26         7.1740   -4.7400    0.9680 o         1 MOL     -0.636488
    168 H71         4.8860   -0.8590   -0.9640 hn        1 MOL      0.360093
    169 H72         6.9440   -2.9530   -1.3700 h1        1 MOL      0.189272
    170 H73         5.0110   -4.3550   -0.7260 hc        1 MOL      0.162154
    171 H74         4.0420   -3.0190   -0.5330 hc        1 MOL      0.162154
    172 H75         4.7920   -3.3810    1.5820 hc        1 MOL      0.092892
    173 H76         5.5390   -1.9130    1.0970 hc        1 MOL      0.092892
    174 N15         4.2920   -2.6020   -3.2910 n         1 MOL     -0.061135
    175 C58         3.5940   -2.9010   -4.5120 c3        1 MOL     -0.498949
    176 H77         3.0990   -3.8690   -4.4190 h1        1 MOL      0.168059
    177 H78         2.8480   -2.1290   -4.7040 h1        1 MOL      0.168059
    178 H79         4.3040   -2.9350   -5.3380 h1        1 MOL      0.168059
    179 H80         3.8560   -1.8820   -2.7340 hn        1 MOL      0.180309
    180 Ca1         8.8640   -1.1020    3.6420 Ca        1 MOL      1.791999
    181 O27         7.6140    1.1720    2.2240 oh        1 MOL     -0.825250
    182 H81         7.9730    2.0200    1.9510 ho        1 MOL      0.367332
    183 H82         6.6790    1.2460    2.0620 ho        1 MOL      0.367332
    184 O28         9.8070   -1.8500    6.0460 oh        1 MOL     -0.825250
    185 H83        10.4800   -2.5230    5.9690 ho        1 MOL      0.367332
    186 H84         9.7220   -1.6960    6.9870 ho        1 MOL      0.367332
    187 O29         7.9220    0.6610    5.6540 oh        1 MOL     -0.825250
    188 H85         8.4880    0.7140    6.4240 ho        1 MOL      0.367332
    189 H86         7.2980    1.3760    5.7610 ho        1 MOL      0.367332
    190 O30         6.1580   -1.2230    3.7520 oh        1 MOL     -0.825250
    191 H87         5.6360   -0.4700    4.0330 ho        1 MOL      0.367332
    192 H88         5.5280   -1.9350    3.6710 ho        1 MOL      0.367332
    193 O31        10.8830    0.3360    4.3800 oh        1 MOL     -0.825250
    194 H89        11.5920   -0.1930    4.7520 ho        1 MOL      0.367332
    195 H90        11.0520    1.2290    4.6940 ho        1 MOL      0.367332
    196 O32        11.2290   -2.4260    3.2580 oh        1 MOL     -0.825250
    197 H91        11.1370   -3.1570    2.6450 ho        1 MOL      0.367332
    198 H92        12.0940   -2.5440    3.6390 ho        1 MOL      0.367332
    199 O33         8.4940   -4.0110    4.0190 oh        1 MOL     -0.825250
    200 H93         7.7290   -4.5460    4.2250 ho        1 MOL      0.367332
    201 H94         8.5390   -4.0140    3.0650 ho        1 MOL      0.367332
    202 O34        10.0040   -0.6240    1.2270 oh        1 MOL     -0.825250
    203 H95         9.7030   -0.2680    0.3960 ho        1 MOL      0.367332
    204 H96        10.9520   -0.4800    1.2240 ho        1 MOL      0.367332
@<TRIPOS>BOND
     1    1    2 1   
     2    1    4 1   
     3    1    5 1   
     4    1    6 1   
     5    2    3 2   
     6    2    7 1   
     7    7    8 1   
     8    7   15 1   
     9    8    9 1   
    10    8   11 1   
    11    8   16 1   
    12    9   10 2   
    13    9   19 1   
    14   11   12 1   
    15   11   17 1   
    16   11   18 1   
    17   12   13 1   
    18   12   14 1   
    19   19   20 1   
    20   19   27 1   
    21   20   21 1   
    22   20   23 1   
    23   20   28 1   
    24   21   22 2   
    25   21   38 1   
    26   23   24 1   
    27   23   25 1   
    28   23   29 1   
    29   24   26 1   
    30   24   30 1   
    31   24   31 1   
    32   25   32 1   
    33   25   33 1   
    34   25   34 1   
    35   26   35 1   
    36   26   36 1   
    37   26   37 1   
    38   38   39 1   
    39   38   46 1   
    40   39   40 1   
    41   39   42 1   
    42   39   47 1   
    43   40   41 2   
    44   40   50 1   
    45   42   43 1   
    46   42   48 1   
    47   42   49 1   
    48   43   44 1   
    49   43   45 1   
    50   50   51 1   
    51   50   54 1   
    52   51   52 1   
    53   51   55 1   
    54   51   56 1   
    55   52   53 2   
    56   52   57 1   
    57   57   58 1   
    58   57   65 1   
    59   58   59 1   
    60   58   61 1   
    61   58   66 1   
    62   59   60 2   
    63   59   69 1   
    64   61   62 1   
    65   61   67 1   
    66   61   68 1   
    67   62   63 1   
    68   62   64 1   
    69   69   70 1   
    70   69   73 1   
    71   70   71 1   
    72   70   74 1   
    73   70   75 1   
    74   71   72 2   
    75   71   76 1   
    76   76   77 1   
    77   76   85 1   
    78   77   78 1   
    79   77   80 1   
    80   77   86 1   
    81   78   79 2   
    82   78   93 1   
    83   80   81 1   
    84   80   87 1   
    85   80   88 1   
    86   81   82 1   
    87   81   89 1   
    88   81   90 1   
    89   82   83 1   
    90   82   84 2   
    91   83   91 1   
    92   83   92 1   
    93   93   94 1   
    94   93  100 1   
    95   94   95 1   
    96   94   97 1   
    97   94  101 1   
    98   95   96 2   
    99   95  109 1   
   100   97   98 1   
   101   97   99 1   
   102   97  102 1   
   103   98  103 1   
   104   98  104 1   
   105   98  105 1   
   106   99  106 1   
   107   99  107 1   
   108   99  108 1   
   109  109  110 1   
   110  109  117 1   
   111  110  111 1   
   112  110  113 1   
   113  110  118 1   
   114  111  112 2   
   115  111  123 1   
   116  113  114 1   
   117  113  119 1   
   118  113  120 1   
   119  114  115 1   
   120  114  116 2   
   121  115  121 1   
   122  115  122 1   
   123  123  124 1   
   124  123  135 1   
   125  124  125 1   
   126  124  127 1   
   127  124  136 1   
   128  125  126 2   
   129  125  144 1   
   130  127  128 1   
   131  127  137 1   
   132  127  138 1   
   133  128  129 ar  
   134  128  130 ar  
   135  129  131 ar  
   136  129  139 1   
   137  130  132 ar  
   138  130  140 1   
   139  131  133 ar  
   140  131  141 1   
   141  132  133 ar  
   142  132  142 1   
   143  133  134 1   
   144  134  143 1   
   145  144  145 1   
   146  144  153 1   
   147  145  146 1   
   148  145  148 1   
   149  145  154 1   
   150  146  147 2   
   151  146  159 1   
   152  148  149 1   
   153  148  155 1   
   154  148  156 1   
   155  149  150 1   
   156  149  157 1   
   157  149  158 1   
   158  150  151 1   
   159  150  152 1   
   160  159  160 1   
   161  159  168 1   
   162  160  161 1   
   163  160  163 1   
   164  160  169 1   
   165  161  162 2   
   166  161  174 1   
   167  163  164 1   
   168  163  170 1   
   169  163  171 1   
   170  164  165 1   
   171  164  172 1   
   172  164  173 1   
   173  165  166 1   
   174  165  167 1   
   175  174  175 1   
   176  174  179 1   
   177  175  176 1   
   178  175  177 1   
   179  175  178 1   
   180  181  182 1   
   181  181  183 1   
   182  184  185 1   
   183  184  186 1   
   184  187  188 1   
   185  187  189 1   
   186  190  191 1   
   187  190  192 1   
   188  193  194 1   
   189  193  195 1   
   190  196  197 1   
   191  196  198 1   
   192  199  200 1   
   193  199  201 1   
   194  202  203 1   
   195  202  204 1   
@<TRIPOS>SUBSTRUCTURE
     1 MOL         1 TEMP              0 ****  ****    0 ROOT
