@<TRIPOS>MOLECULE
MOL
  201   193     1     0     0
SMALL
resp


@<TRIPOS>ATOM
      1 C1         -4.9910   -4.8710    3.5510 c3        1 MOL     -0.465869
      2 C2         -3.9800   -4.1090    2.7120 c         1 MOL      0.780588
      3 O1         -3.4050   -3.1040    3.0330 o         1 MOL     -0.548041
      4 H1         -5.4670   -5.6370    2.9390 hc        1 MOL      0.117028
      5 H2         -4.4830   -5.3430    4.3920 hc        1 MOL      0.117028
      6 H3         -5.7480   -4.1820    3.9230 hc        1 MOL      0.117028
      7 N1         -3.7920   -4.5440    1.4520 n         1 MOL     -0.656862
      8 C3         -2.8970   -3.9750    0.3980 c3        1 MOL     -0.104754
      9 C4         -1.3860   -3.7520    0.7930 c         1 MOL      0.706732
     10 O2         -0.6420   -2.9030    0.2950 o         1 MOL     -0.591531
     11 C5         -3.6020   -2.7860   -0.2970 c3        1 MOL     -0.371425
     12 C6         -5.1260   -2.8940   -0.3180 c         1 MOL      1.031846
     13 O3         -5.8730   -1.9160   -0.1290 o         1 MOL     -0.870544
     14 O4         -5.6700   -3.9520   -0.8100 o         1 MOL     -0.870544
     15 H4         -4.0850   -5.4860    1.2380 hn        1 MOL      0.330099
     16 H5         -2.8890   -4.7180   -0.3990 h1        1 MOL      0.120722
     17 H6         -3.2200   -2.5790   -1.2990 hc        1 MOL      0.155401
     18 H7         -3.4160   -1.9050    0.3170 hc        1 MOL      0.155401
     19 N2         -0.8230   -4.5460    1.7270 n         1 MOL     -0.528322
     20 C7          0.6160   -4.5590    2.1410 c3        1 MOL     -0.029471
     21 C8          1.2310   -5.8590    1.5360 c         1 MOL      0.475822
     22 O5          0.7940   -6.9650    1.7910 o         1 MOL     -0.566730
     23 C9          0.5450   -4.4390    3.7250 c3        1 MOL      0.207845
     24 C10         0.0940   -3.1520    4.2760 c3        1 MOL     -0.331597
     25 C11         1.9950   -4.7950    4.2040 c3        1 MOL     -0.257806
     26 C12        -0.3900   -3.0190    5.7630 c3        1 MOL     -0.152858
     27 H8         -1.4720   -5.0050    2.3540 hn        1 MOL      0.257433
     28 H9          1.1680   -3.7140    1.7240 h1        1 MOL      0.206738
     29 H10         0.0300   -5.2510    4.2390 hc        1 MOL      0.008390
     30 H11        -0.7910   -2.9110    3.7050 hc        1 MOL      0.172805
     31 H12         0.8820   -2.4510    4.0070 hc        1 MOL      0.172805
     32 H13         2.0500   -4.7320    5.2960 hc        1 MOL      0.058513
     33 H14         2.1590   -5.8470    3.9870 hc        1 MOL      0.058513
     34 H15         2.7090   -4.0870    3.7930 hc        1 MOL      0.058513
     35 H16        -0.8250   -2.0440    5.9290 hc        1 MOL      0.043573
     36 H17        -1.0070   -3.8210    6.1580 hc        1 MOL      0.043573
     37 H18         0.3940   -3.1000    6.5240 hc        1 MOL      0.043573
     38 N3          2.4130   -5.7710    0.8600 n         1 MOL     -0.312122
     39 C13         3.1760   -4.6400    0.3120 c3        1 MOL     -0.123410
     40 C14         3.7780   -5.1360   -0.9890 c         1 MOL      0.599665
     41 O6          4.3910   -6.1780   -1.0420 o         1 MOL     -0.515786
     42 C15         4.1830   -4.1620    1.3510 c3        1 MOL     -0.144245
     43 C16         5.3140   -3.3260    0.8290 c         1 MOL      0.738079
     44 O7          6.5090   -3.6890    0.9710 o         1 MOL     -0.702365
     45 O8          4.9890   -2.3570    0.1200 o         1 MOL     -0.702365
     46 H19         2.6200   -6.6850    0.4760 hn        1 MOL      0.244595
     47 H20         2.5200   -3.8180    0.0470 h1        1 MOL      0.021157
     48 H21         4.5490   -5.0630    1.8520 hc        1 MOL      0.026928
     49 H22         3.6990   -3.6230    2.1640 hc        1 MOL      0.026928
     50 N4          3.6400   -4.3710   -2.0800 n         1 MOL     -0.497607
     51 C17         4.3070   -4.6980   -3.3400 c3        1 MOL     -0.093042
     52 C18         5.6840   -4.0050   -3.5560 c         1 MOL      0.613073
     53 O9          6.3610   -4.3280   -4.5140 o         1 MOL     -0.620675
     54 H23         3.0310   -3.5780   -1.9360 hn        1 MOL      0.343680
     55 H24         3.6480   -4.3870   -4.1500 h1        1 MOL      0.084134
     56 H25         4.4640   -5.7690   -3.4420 h1        1 MOL      0.084134
     57 N5          6.0540   -3.0070   -2.7520 n         1 MOL     -0.490690
     58 C19         7.2260   -2.1370   -3.1350 c3        1 MOL      0.117408
     59 C20         8.1350   -1.5820   -2.0160 c         1 MOL      0.296077
     60 O10         9.2470   -1.1540   -2.2730 o         1 MOL     -0.563572
     61 C21         6.7070   -0.9570   -3.9010 c3        1 MOL     -0.089069
     62 C22         5.6380   -0.2740   -3.1080 c         1 MOL      0.617773
     63 O11         6.0830    0.4550   -2.1640 o         1 MOL     -0.670856
     64 O12         4.4200   -0.5650   -3.3940 o         1 MOL     -0.670856
     65 H26         5.5580   -3.1550   -1.8790 hn        1 MOL      0.355191
     66 H27         7.9300   -2.6910   -3.7610 h1        1 MOL      0.081011
     67 H28         6.3140   -1.1610   -4.9030 hc        1 MOL      0.002070
     68 H29         7.6220   -0.3690   -4.0090 hc        1 MOL      0.002070
     69 N6          7.6750   -1.5350   -0.7700 n         1 MOL      0.000093
     70 C23         8.4900   -1.1780    0.3780 c3        1 MOL     -0.283313
     71 C24         8.6960    0.3430    0.4320 c         1 MOL      0.477032
     72 O13         9.3240    0.8140    1.3650 o         1 MOL     -0.606505
     73 H30         6.7750   -1.9950   -0.6780 hn        1 MOL      0.157123
     74 H31         9.4470   -1.6890    0.2700 h1        1 MOL      0.130571
     75 H32         7.9560   -1.6150    1.2250 h1        1 MOL      0.130571
     76 N7          8.1130    1.1780   -0.4400 n         1 MOL     -0.036415
     77 C25         8.0520    2.5810   -0.5540 c3        1 MOL      0.173640
     78 C26         7.6470    3.3040    0.7680 c         1 MOL      0.487060
     79 O14         8.1870    4.3560    1.0730 o         1 MOL     -0.524678
     80 C27         9.2730    3.2360   -1.1940 c3        1 MOL      0.022366
     81 C28         9.5870    2.6700   -2.5290 c3        1 MOL     -0.036294
     82 C29        10.5700    3.4710   -3.3910 c         1 MOL      0.604409
     83 N8         11.3890    2.8110   -4.1090 n         1 MOL     -0.760439
     84 O15        10.3920    4.6880   -3.4300 o         1 MOL     -0.587354
     85 H33         7.4430    0.7370   -1.0450 hn        1 MOL      0.075344
     86 H34         7.2100    2.7480   -1.2280 h1        1 MOL      0.023264
     87 H35        10.1140    3.1530   -0.5010 hc        1 MOL     -0.018414
     88 H36         8.9270    4.2710   -1.2230 hc        1 MOL     -0.018414
     89 H37         8.7020    2.5780   -3.1530 hc        1 MOL      0.010115
     90 H38         9.9240    1.6460   -2.4000 hc        1 MOL      0.010115
     91 H39        11.2270    1.8130   -4.1700 hn        1 MOL      0.344702
     92 H40        12.0440    3.2220   -4.7580 hn        1 MOL      0.344702
     93 N9          6.7120    2.7300    1.5750 n         1 MOL     -0.506605
     94 C30         6.1350    3.2540    2.7630 c3        1 MOL      0.019525
     95 C31         4.6920    2.9050    2.8900 c         1 MOL      0.444206
     96 O16         4.0650    3.1900    3.9580 o         1 MOL     -0.593490
     97 C32         6.8570    2.7210    4.0050 c3        1 MOL      0.383507
     98 C33         6.8790    1.1740    4.1210 c3        1 MOL     -0.371956
     99 C34         8.2950    3.2980    4.1000 c3        1 MOL     -0.371956
    100 H41         6.4830    1.8090    1.2370 hn        1 MOL      0.283678
    101 H42         6.2570    4.3300    2.8030 h1        1 MOL      0.102775
    102 H43         6.4110    3.1920    4.8790 hc        1 MOL     -0.066708
    103 H44         7.3790    0.8950    5.0450 hc        1 MOL      0.081997
    104 H45         5.8540    0.8080    4.1080 hc        1 MOL      0.081997
    105 H46         7.3360    0.7280    3.2360 hc        1 MOL      0.081997
    106 H47         8.2610    4.3610    3.8580 hc        1 MOL      0.081997
    107 H48         8.6770    3.1320    5.1050 hc        1 MOL      0.081997
    108 H49         8.9780    2.8550    3.3700 hc        1 MOL      0.081997
    109 N10         3.9740    2.3500    1.9400 n         1 MOL     -0.409379
    110 C35         2.5560    2.0230    2.0590 c3        1 MOL      0.395490
    111 C36         1.7820    2.3720    0.7400 c         1 MOL      0.364246
    112 O17         2.3440    2.5200   -0.3460 o         1 MOL     -0.489044
    113 C37         2.4200    0.5470    2.5230 c3        1 MOL      0.035157
    114 C38         1.2100   -0.2710    2.1320 c         1 MOL      0.173147
    115 N11         1.1710   -0.7930    0.8750 n         1 MOL     -0.463282
    116 O18         0.2150   -0.2090    2.8600 o         1 MOL     -0.465400
    117 H50         4.3030    1.9720    1.0670 hn        1 MOL      0.222535
    118 H51         2.1170    2.6630    2.8260 h1        1 MOL      0.010177
    119 H52         2.5470    0.5630    3.6070 hc        1 MOL      0.021106
    120 H53         3.3160    0.0590    2.1380 hc        1 MOL      0.021106
    121 H54         1.9840   -0.8290    0.2780 hn        1 MOL      0.302679
    122 H55         0.4790   -1.4850    0.6150 hn        1 MOL      0.302679
    123 N12         0.4390    2.3940    0.8760 n         1 MOL     -0.574170
    124 C39        -0.5280    2.5800   -0.1000 c3        1 MOL      0.469782
    125 C40        -1.7050    3.4810    0.4170 c         1 MOL      0.436689
    126 O19        -2.0920    3.3510    1.6340 o         1 MOL     -0.543228
    127 C41        -0.9380    1.1740   -0.6430 c3        1 MOL     -0.271404
    128 C42        -2.0900    1.2960   -1.6100 ca        1 MOL      0.081496
    129 C43        -1.8590    2.0570   -2.7930 ca        1 MOL     -0.239125
    130 C44        -3.3610    0.7500   -1.2470 ca        1 MOL     -0.239125
    131 C45        -2.9840    2.3950   -3.5480 ca        1 MOL     -0.175047
    132 C46        -4.4350    0.9860   -2.1400 ca        1 MOL     -0.175047
    133 C47        -4.2470    1.7950   -3.2780 ca        1 MOL      0.216810
    134 O20        -5.3670    2.0780   -3.9510 oh        1 MOL     -0.424611
    135 H56         0.1280    2.1810    1.8120 hn        1 MOL      0.270192
    136 H57        -0.0350    3.0530   -0.9510 h1        1 MOL      0.009180
    137 H58        -1.1150    0.5500    0.2200 hc        1 MOL      0.110413
    138 H59        -0.1690    0.7040   -1.2460 hc        1 MOL      0.110413
    139 H60        -0.9180    2.5550   -2.9860 ha        1 MOL      0.151516
    140 H61        -3.4060    0.1510   -0.3570 ha        1 MOL      0.151516
    141 H62        -2.9100    3.1270   -4.3370 ha        1 MOL      0.130518
    142 H63        -5.3880    0.5140   -1.9540 ha        1 MOL      0.130518
    143 H64        -5.1170    2.5070   -4.7790 ho        1 MOL      0.340359
    144 N13        -2.3080    4.3290   -0.3690 n         1 MOL     -0.620628
    145 C48        -3.5060    5.0700   -0.0720 c3        1 MOL      0.393543
    146 C49        -4.5220    4.9550   -1.1890 c         1 MOL      0.741165
    147 O21        -4.2770    5.4370   -2.2430 o         1 MOL     -0.649556
    148 C50        -3.2710    6.5970    0.2990 c3        1 MOL      0.021679
    149 C51        -4.3970    7.4410    0.8980 c3        1 MOL     -0.205202
    150 C52        -3.9340    8.9040    1.0410 c         1 MOL      0.700186
    151 O22        -3.8740    9.4310    2.1460 o         1 MOL     -0.642766
    152 O23        -3.7070    9.5490   -0.0120 o         1 MOL     -0.642766
    153 H65        -1.9410    4.4570   -1.3000 hn        1 MOL      0.278699
    154 H66        -3.9300    4.5680    0.8000 h1        1 MOL     -0.006417
    155 H67        -2.9760    7.0240   -0.6630 hc        1 MOL     -0.011528
    156 H68        -2.4250    6.5500    0.9870 hc        1 MOL     -0.011528
    157 H69        -4.4990    6.9890    1.8880 hc        1 MOL      0.031375
    158 H70        -5.3500    7.2480    0.4090 hc        1 MOL      0.031375
    159 N14        -5.6810    4.4030   -1.1000 n         1 MOL     -0.527705
    160 C53        -6.1200    3.3420   -0.0640 c3        1 MOL     -0.135259
    161 C54        -6.4800    3.9870    1.2280 c         1 MOL      0.492740
    162 O24        -7.1280    5.0560    1.1870 o         1 MOL     -0.513637
    163 C55        -7.3350    2.5470   -0.5730 c3        1 MOL     -0.005284
    164 C56        -8.5720    3.4020   -0.7270 c3        1 MOL     -0.099679
    165 C57        -9.6480    2.7840   -1.6470 c         1 MOL      0.515256
    166 O25       -10.1560    3.5350   -2.4990 o         1 MOL     -0.637962
    167 O26        -9.8740    1.5420   -1.5610 o         1 MOL     -0.637962
    168 H71        -6.3820    4.7100   -1.7630 hn        1 MOL      0.332650
    169 H72        -5.3140    2.6480    0.1950 h1        1 MOL      0.086242
    170 H73        -7.5540    1.7790    0.1680 hc        1 MOL      0.052695
    171 H74        -7.1170    2.2240   -1.5940 hc        1 MOL      0.052695
    172 H75        -8.2540    4.3370   -1.1910 hc        1 MOL      0.024539
    173 H76        -8.9820    3.7170    0.2300 hc        1 MOL      0.024539
    174 N15        -5.9830    3.3680    2.2970 n         1 MOL     -0.276423
    175 C58        -6.0030    3.8600    3.6800 c3        1 MOL     -0.372712
    176 H77        -5.4150    4.7760    3.7470 h1        1 MOL      0.144721
    177 H78        -7.0310    4.0660    3.9780 h1        1 MOL      0.144721
    178 H79        -5.5760    3.1060    4.3400 h1        1 MOL      0.144721
    179 H80        -5.3660    2.5990    2.0990 hn        1 MOL      0.263034
    180 Ca1        -8.1010   -3.1260   -0.9070 Ca        1 MOL      1.772677
    181 O27        -7.9450   -4.9970   -3.3030 oh        1 MOL     -0.802010
    182 H81        -7.4640   -5.8210   -3.2440 ho        1 MOL      0.377700
    183 H82        -8.4540   -5.0810   -4.1120 ho        1 MOL      0.377700
    184 O28        -6.8170   -2.3920   -3.4830 oh        1 MOL     -0.802010
    185 H83        -5.9090   -2.2850   -3.7590 ho        1 MOL      0.377700
    186 H84        -7.0670   -3.2580   -3.7920 ho        1 MOL      0.377700
    187 O29       -10.7270   -3.5060   -0.1430 oh        1 MOL     -0.802010
    188 H85       -10.7570   -2.9580    0.6480 ho        1 MOL      0.377700
    189 H86       -11.6130   -3.4790   -0.4840 ho        1 MOL      0.377700
    190 O30        -8.6410   -0.6340   -0.3420 oh        1 MOL     -0.802010
    191 H87        -8.9100    0.1460   -0.8330 ho        1 MOL      0.377700
    192 H88        -8.2870   -0.2810    0.4740 ho        1 MOL      0.377700
    193 O31        -8.5650   -5.8120   -0.6970 oh        1 MOL     -0.802010
    194 H89        -8.9960   -5.9910   -1.5360 ho        1 MOL      0.377700
    195 H90        -8.3070   -6.6750   -0.3720 ho        1 MOL      0.377700
    196 O32        -9.8390   -2.2690   -2.5960 oh        1 MOL     -0.802010
    197 H91       -10.6670   -1.7900   -2.6310 ho        1 MOL      0.377700
    198 H92        -9.8170   -2.7500   -3.4200 ho        1 MOL      0.377700
    199 O33        -8.5980   -3.1730    1.6110 oh        1 MOL     -0.802010
    200 H93        -9.1830   -2.7350    2.2290 ho        1 MOL      0.377700
    201 H94        -8.3470   -3.9890    2.0410 ho        1 MOL      0.377700
@<TRIPOS>BOND
     1    1    2 1   
     2    1    4 1   
     3    1    5 1   
     4    1    6 1   
     5    2    3 2   
     6    2    7 1   
     7    7    8 1   
     8    7   15 1   
     9    8    9 1   
    10    8   11 1   
    11    8   16 1   
    12    9   10 2   
    13    9   19 1   
    14   11   12 1   
    15   11   17 1   
    16   11   18 1   
    17   12   13 1   
    18   12   14 1   
    19   19   20 1   
    20   19   27 1   
    21   20   21 1   
    22   20   23 1   
    23   20   28 1   
    24   21   22 2   
    25   21   38 1   
    26   23   24 1   
    27   23   25 1   
    28   23   29 1   
    29   24   26 1   
    30   24   30 1   
    31   24   31 1   
    32   25   32 1   
    33   25   33 1   
    34   25   34 1   
    35   26   35 1   
    36   26   36 1   
    37   26   37 1   
    38   38   39 1   
    39   38   46 1   
    40   39   40 1   
    41   39   42 1   
    42   39   47 1   
    43   40   41 2   
    44   40   50 1   
    45   42   43 1   
    46   42   48 1   
    47   42   49 1   
    48   43   44 1   
    49   43   45 1   
    50   50   51 1   
    51   50   54 1   
    52   51   52 1   
    53   51   55 1   
    54   51   56 1   
    55   52   53 2   
    56   52   57 1   
    57   57   58 1   
    58   57   65 1   
    59   58   59 1   
    60   58   61 1   
    61   58   66 1   
    62   59   60 2   
    63   59   69 1   
    64   61   62 1   
    65   61   67 1   
    66   61   68 1   
    67   62   63 1   
    68   62   64 1   
    69   69   70 1   
    70   69   73 1   
    71   70   71 1   
    72   70   74 1   
    73   70   75 1   
    74   71   72 2   
    75   71   76 1   
    76   76   77 1   
    77   76   85 1   
    78   77   78 1   
    79   77   80 1   
    80   77   86 1   
    81   78   79 2   
    82   78   93 1   
    83   80   81 1   
    84   80   87 1   
    85   80   88 1   
    86   81   82 1   
    87   81   89 1   
    88   81   90 1   
    89   82   83 1   
    90   82   84 2   
    91   83   91 1   
    92   83   92 1   
    93   93   94 1   
    94   93  100 1   
    95   94   95 1   
    96   94   97 1   
    97   94  101 1   
    98   95   96 2   
    99   95  109 1   
   100   97   98 1   
   101   97   99 1   
   102   97  102 1   
   103   98  103 1   
   104   98  104 1   
   105   98  105 1   
   106   99  106 1   
   107   99  107 1   
   108   99  108 1   
   109  109  110 1   
   110  109  117 1   
   111  110  111 1   
   112  110  113 1   
   113  110  118 1   
   114  111  112 2   
   115  111  123 1   
   116  113  114 1   
   117  113  119 1   
   118  113  120 1   
   119  114  115 1   
   120  114  116 2   
   121  115  121 1   
   122  115  122 1   
   123  123  124 1   
   124  123  135 1   
   125  124  125 1   
   126  124  127 1   
   127  124  136 1   
   128  125  126 2   
   129  125  144 1   
   130  127  128 1   
   131  127  137 1   
   132  127  138 1   
   133  128  129 ar  
   134  128  130 ar  
   135  129  131 ar  
   136  129  139 1   
   137  130  132 ar  
   138  130  140 1   
   139  131  133 ar  
   140  131  141 1   
   141  132  133 ar  
   142  132  142 1   
   143  133  134 1   
   144  134  143 1   
   145  144  145 1   
   146  144  153 1   
   147  145  146 1   
   148  145  148 1   
   149  145  154 1   
   150  146  147 2   
   151  146  159 1   
   152  148  149 1   
   153  148  155 1   
   154  148  156 1   
   155  149  150 1   
   156  149  157 1   
   157  149  158 1   
   158  150  151 1   
   159  150  152 1   
   160  159  160 1   
   161  159  168 1   
   162  160  161 1   
   163  160  163 1   
   164  160  169 1   
   165  161  162 2   
   166  161  174 1   
   167  163  164 1   
   168  163  170 1   
   169  163  171 1   
   170  164  165 1   
   171  164  172 1   
   172  164  173 1   
   173  165  166 1   
   174  165  167 1   
   175  174  175 1   
   176  174  179 1   
   177  175  176 1   
   178  175  177 1   
   179  175  178 1   
   180  181  182 1   
   181  181  183 1   
   182  184  185 1   
   183  184  186 1   
   184  187  188 1   
   185  187  189 1   
   186  190  191 1   
   187  190  192 1   
   188  193  194 1   
   189  193  195 1   
   190  196  197 1   
   191  196  198 1   
   192  199  200 1   
   193  199  201 1   
@<TRIPOS>SUBSTRUCTURE
     1 MOL         1 TEMP              0 ****  ****    0 ROOT
