@<TRIPOS>MOLECULE
MOL
  179   176     1     0     0
SMALL
resp


@<TRIPOS>ATOM
      1 C1          3.3560    0.6520    6.1810 c3        1 MOL     -0.414018
      2 C2          3.0730    0.8880    4.7130 c         1 MOL      0.696712
      3 O1          3.9490    0.6390    3.8270 o         1 MOL     -0.597404
      4 H1          3.0780   -0.3690    6.4450 hc        1 MOL      0.115820
      5 H2          4.4190    0.8000    6.3760 hc        1 MOL      0.115820
      6 H3          2.7760    1.3520    6.7810 hc        1 MOL      0.115820
      7 N1          1.8300    1.2610    4.3740 n         1 MOL     -0.538682
      8 C3          1.3600    1.4590    3.0120 c3        1 MOL     -0.103101
      9 C4          1.9120    2.7570    2.4660 c         1 MOL      0.622041
     10 O2          1.5330    3.8570    2.9070 o         1 MOL     -0.540029
     11 C5         -0.1980    1.4270    3.0140 c3        1 MOL      0.019601
     12 C6         -0.7010    1.4640    1.5440 c         1 MOL      0.473778
     13 O3         -1.9650    1.4910    1.3460 o         1 MOL     -0.687559
     14 O4          0.0820    1.4670    0.5470 o         1 MOL     -0.687559
     15 H4          1.1940    1.5170    5.1210 hn        1 MOL      0.314888
     16 H5          1.7140    0.6250    2.4080 h1        1 MOL      0.058361
     17 H6         -0.6000    2.2930    3.5360 hc        1 MOL      0.030449
     18 H7         -0.5860    0.5260    3.4820 hc        1 MOL      0.030449
     19 N2          2.8450    2.7030    1.5250 n         1 MOL     -0.422596
     20 C7          3.5100    3.8290    0.8090 c3        1 MOL      0.068593
     21 C8          2.6350    4.8550    0.1000 c         1 MOL      0.393175
     22 O5          3.0410    6.0280    0.0880 o         1 MOL     -0.536004
     23 C9          4.3770    3.1970   -0.2350 c3        1 MOL     -0.040549
     24 C10         5.7260    3.9030   -0.2590 c3        1 MOL     -0.033215
     25 C11         6.5370    3.4280   -1.4400 c3        1 MOL     -0.111262
     26 C12         7.9800    3.7160   -1.0870 c3        1 MOL      0.122896
     27 N3          8.3570    5.1710   -1.2430 n4        1 MOL     -0.376919
     28 H8          3.0260    1.7820    1.1590 hn        1 MOL      0.298214
     29 H9          4.1330    4.3770    1.5190 h1        1 MOL      0.078886
     30 H10         3.8180    3.2240   -1.1750 hc        1 MOL      0.042015
     31 H11         4.6440    2.1560   -0.0100 hc        1 MOL      0.042015
     32 H12         6.2290    3.6200    0.6680 hc        1 MOL      0.033050
     33 H13         5.5680    4.9720   -0.0790 hc        1 MOL      0.033050
     34 H14         6.2570    3.9150   -2.3740 hc        1 MOL      0.061367
     35 H15         6.4240    2.3520   -1.5860 hc        1 MOL      0.061367
     36 H16         8.6540    3.1340   -1.7090 hx        1 MOL      0.069468
     37 H17         8.3650    3.4320   -0.1040 hx        1 MOL      0.069468
     38 H18         7.8740    5.8610   -0.6760 hn        1 MOL      0.303499
     39 H19         9.3550    5.3170   -1.1720 hn        1 MOL      0.303499
     40 H20         8.1950    5.4220   -2.2030 hn        1 MOL      0.303499
     41 N4          1.4830    4.3810   -0.4300 n         1 MOL     -0.187553
     42 C13         0.4510    5.1330   -1.2180 c3        1 MOL      0.041379
     43 C14        -0.8090    5.4960   -0.3770 c         1 MOL      0.358964
     44 O6         -1.6820    6.2200   -0.8550 o         1 MOL     -0.513758
     45 C15         0.0860    4.4240   -2.4920 c3        1 MOL     -0.241489
     46 C16        -0.5110    3.0520   -2.2600 c         1 MOL      0.772809
     47 O7         -1.7350    2.9760   -1.9100 o         1 MOL     -0.747723
     48 O8          0.1660    1.9780   -2.4810 o         1 MOL     -0.747723
     49 H21         1.3530    3.3900   -0.2650 hn        1 MOL      0.158257
     50 H22         0.8770    6.0670   -1.5730 h1        1 MOL      0.098257
     51 H23         1.0070    4.1710   -3.0120 hc        1 MOL      0.063960
     52 H24        -0.6020    5.0840   -3.0250 hc        1 MOL      0.063960
     53 N5         -0.8700    4.9960    0.8600 n         1 MOL     -0.141760
     54 C17        -1.9090    5.2090    1.8500 c3        1 MOL     -0.088982
     55 C18        -3.3480    4.7900    1.5230 c         1 MOL      0.510928
     56 O9         -4.2440    5.2110    2.1870 o         1 MOL     -0.555441
     57 H25        -0.0290    4.4840    1.0850 hn        1 MOL      0.147285
     58 H26        -2.0140    6.2560    2.1310 h1        1 MOL      0.083227
     59 H27        -1.4920    4.7790    2.7660 h1        1 MOL      0.083227
     60 N6         -3.4960    4.1590    0.3500 n         1 MOL     -0.322360
     61 C19        -4.7130    3.8220   -0.3770 c3        1 MOL      0.340260
     62 C20        -4.9430    2.3020   -0.6420 c         1 MOL      0.440654
     63 O10        -4.0880    1.5310   -0.8790 o         1 MOL     -0.410855
     64 C21        -4.7610    4.6870   -1.7180 c3        1 MOL     -0.253062
     65 C22        -6.1790    4.8330   -2.1890 c         1 MOL      0.632322
     66 N7         -6.9290    5.7380   -1.6570 n         1 MOL     -0.796458
     67 O11        -6.5530    4.0490   -3.0100 o         1 MOL     -0.583714
     68 H28        -2.6590    3.7870   -0.0710 hn        1 MOL      0.215973
     69 H29        -5.5830    4.1470    0.2090 h1        1 MOL     -0.082785
     70 H30        -4.2820    4.0600   -2.4660 hc        1 MOL      0.101966
     71 H31        -4.3600    5.7010   -1.5800 hc        1 MOL      0.101966
     72 H32        -6.5350    6.3300   -0.9410 hn        1 MOL      0.371109
     73 H33        -7.8730    5.8700   -1.9870 hn        1 MOL      0.371109
     74 N8         -6.2530    2.0340   -0.7520 n         1 MOL     -0.427884
     75 C23        -6.8480    0.7320   -1.1660 c3        1 MOL     -0.173524
     76 C24        -6.4170   -0.4100   -0.2670 c         1 MOL      0.602047
     77 O12        -6.5140   -0.3370    0.9530 o         1 MOL     -0.515429
     78 H34        -6.9300    2.7820   -0.6800 hn        1 MOL      0.324479
     79 H35        -6.6670    0.5350   -2.2230 h1        1 MOL      0.114852
     80 H36        -7.9170    0.8900   -1.0770 h1        1 MOL      0.114852
     81 N9         -5.9350   -1.4800   -0.8700 n         1 MOL     -0.604604
     82 C25        -5.2500   -2.5730   -0.1070 c3        1 MOL      0.422852
     83 C26        -3.8800   -2.1380    0.4760 c         1 MOL      0.513516
     84 O13        -3.3080   -1.0970    0.0850 o         1 MOL     -0.530911
     85 C27        -4.9860   -3.7520   -0.9700 c3        1 MOL     -0.289135
     86 C28        -6.2410   -4.4950   -1.3470 ca        1 MOL      0.053546
     87 C29        -6.7630   -4.3230   -2.6700 ca        1 MOL     -0.134150
     88 C30        -6.8960   -5.3960   -0.4620 ca        1 MOL     -0.134150
     89 C31        -7.9110   -4.9800   -3.0240 ca        1 MOL     -0.282939
     90 C32        -8.0630   -6.1050   -0.8030 ca        1 MOL     -0.282939
     91 C33        -8.5460   -5.9080   -2.1350 ca        1 MOL      0.353833
     92 O14        -9.6960   -6.5280   -2.4820 oh        1 MOL     -0.486673
     93 H37        -5.7890   -1.4390   -1.8720 hn        1 MOL      0.306693
     94 H38        -5.9020   -2.8960    0.7060 h1        1 MOL     -0.017648
     95 H39        -4.3490   -4.4600   -0.4450 hc        1 MOL      0.079752
     96 H40        -4.4680   -3.4050   -1.8630 hc        1 MOL      0.079752
     97 H41        -6.2190   -3.7240   -3.3860 ha        1 MOL      0.125977
     98 H42        -6.4790   -5.6450    0.5030 ha        1 MOL      0.125977
     99 H43        -8.3870   -4.8120   -3.9800 ha        1 MOL      0.164574
    100 H44        -8.4680   -6.8890   -0.1840 ha        1 MOL      0.164574
    101 H45       -10.1160   -6.9730   -1.7380 ho        1 MOL      0.374220
    102 N10        -3.4690   -2.8320    1.5220 n         1 MOL     -0.638608
    103 C34        -2.4150   -2.6430    2.5070 c3        1 MOL      0.533130
    104 C35        -1.0000   -2.2650    2.0020 c         1 MOL      0.230642
    105 O15        -0.7930   -1.2700    1.2990 o         1 MOL     -0.436354
    106 C36        -2.8910   -1.7330    3.6870 c3        1 MOL      0.242739
    107 C37        -2.0340   -2.0040    4.9990 c3        1 MOL     -0.284208
    108 C38        -4.4160   -1.9680    4.0410 c3        1 MOL     -0.361121
    109 C39        -1.9720   -3.3710    5.7270 c3        1 MOL     -0.084213
    110 H46        -4.0620   -3.5970    1.8270 hn        1 MOL      0.275557
    111 H47        -2.3260   -3.6190    2.9890 h1        1 MOL     -0.075669
    112 H48        -2.7760   -0.6960    3.3760 hc        1 MOL      0.010177
    113 H49        -2.4640   -1.2580    5.6730 hc        1 MOL      0.092869
    114 H50        -0.9770   -1.8080    4.8210 hc        1 MOL      0.092869
    115 H51        -4.7580   -1.3980    4.9110 hc        1 MOL      0.094089
    116 H52        -4.9850   -1.5130    3.2290 hc        1 MOL      0.094089
    117 H53        -4.6810   -3.0090    4.2290 hc        1 MOL      0.094089
    118 H54        -2.9920   -3.6790    5.9760 hc        1 MOL      0.027314
    119 H55        -1.5960   -4.1500    5.0650 hc        1 MOL      0.027314
    120 H56        -1.3660   -3.2020    6.6210 hc        1 MOL      0.027314
    121 N11        -0.0070   -2.9350    2.6310 n         1 MOL     -0.679233
    122 C40         1.4930   -2.5410    2.7170 c3        1 MOL      0.214979
    123 C41         2.2030   -2.5800    1.4020 c         1 MOL      0.426803
    124 O16         3.4170   -2.4230    1.4210 o         1 MOL     -0.561369
    125 C42         2.2160   -3.4740    3.7540 c3        1 MOL     -0.007596
    126 O17         1.4590   -3.7020    4.9130 oh        1 MOL     -0.561062
    127 H57        -0.3180   -3.5930    3.3230 hn        1 MOL      0.351269
    128 H58         1.5050   -1.5080    3.0770 h1        1 MOL      0.191242
    129 H59         3.1130   -2.9140    4.0440 h1        1 MOL      0.107856
    130 H60         2.3890   -4.4330    3.2590 h1        1 MOL      0.107856
    131 H61         1.1700   -4.6120    4.9960 ho        1 MOL      0.392963
    132 N12         1.5470   -2.8270    0.2970 n         1 MOL     -0.407824
    133 C43         2.0660   -2.7790   -1.0840 c3        1 MOL      0.069613
    134 C44         1.8230   -1.4000   -1.7240 c         1 MOL      0.794030
    135 O18         0.6660   -1.0010   -1.7140 o         1 MOL     -0.659342
    136 C45         1.7170   -4.0360   -1.8870 c3        1 MOL     -0.302612
    137 H62         0.5430   -2.8770    0.3810 hn        1 MOL      0.302596
    138 H63         3.0940   -3.0290   -0.8230 h1        1 MOL      0.168873
    139 H64         0.6960   -4.0380   -2.2540 hc        1 MOL      0.082897
    140 H65         2.3660   -3.9380   -2.7610 hc        1 MOL      0.082897
    141 H66         1.9390   -4.9810   -1.4020 hc        1 MOL      0.082897
    142 N13         2.8190   -0.6950   -2.3390 n         1 MOL     -0.733514
    143 C46         4.2760   -0.8320   -2.2510 c3        1 MOL      0.134593
    144 C47         4.9250   -2.0390   -2.9640 c         1 MOL      0.839825
    145 O19         4.6640   -2.3240   -4.0980 o         1 MOL     -0.624915
    146 C48         4.7630    0.4460   -2.9470 c3        1 MOL     -0.302388
    147 H67         2.5680    0.1200   -2.8660 hn        1 MOL      0.392491
    148 H68         4.6740   -0.8940   -1.2310 h1        1 MOL      0.071647
    149 H69         4.2770    1.3760   -2.6560 hc        1 MOL      0.089004
    150 H70         5.8580    0.4980   -2.9530 hc        1 MOL      0.089004
    151 H71         4.6150    0.3960   -4.0260 hc        1 MOL      0.089004
    152 N14         5.7360   -2.8810   -2.3100 n         1 MOL     -0.685344
    153 C49         5.9650   -2.9720   -0.8900 c3        1 MOL     -0.348350
    154 C50         6.1900   -4.4890   -0.3630 c         1 MOL      0.628738
    155 O20         6.1530   -4.6510    0.8360 o         1 MOL     -0.540686
    156 C51         7.1370   -2.0320   -0.4600 c3        1 MOL      0.175713
    157 C52         8.5030   -2.4690   -0.8450 c3        1 MOL     -0.324829
    158 C53         8.6720   -2.4720   -2.3340 c         1 MOL      0.761624
    159 O21         9.1960   -1.4810   -2.9210 o         1 MOL     -0.704977
    160 O22         8.4190   -3.4570   -3.0450 o         1 MOL     -0.704977
    161 H72         6.1710   -3.5360   -2.9450 hn        1 MOL      0.363982
    162 H73         5.0810   -2.7320   -0.3050 h1        1 MOL      0.155652
    163 H74         7.1140   -2.0380    0.6250 hc        1 MOL      0.003094
    164 H75         6.9520   -1.0380   -0.8710 hc        1 MOL      0.003094
    165 H76         8.6500   -3.4910   -0.4970 hc        1 MOL      0.071076
    166 H77         9.2490   -1.8410   -0.3810 hc        1 MOL      0.071076
    167 N15         6.5000   -5.5060   -1.1490 n         1 MOL     -0.331250
    168 C54         6.6390   -6.8900   -0.6290 c3        1 MOL     -0.102547
    169 H78         5.8350   -7.0950    0.0780 h1        1 MOL      0.073870
    170 H79         6.5830   -7.5980   -1.4570 h1        1 MOL      0.073870
    171 H80         7.6000   -6.9940   -0.1250 h1        1 MOL      0.073870
    172 H81         6.5940   -5.2930   -2.1260 hn        1 MOL      0.275174
    173 Ca1        -1.5320    0.3830   -1.1210 Ca        1 MOL      1.773490
    174 O23        -2.3710    0.7420   -3.6660 oh        1 MOL     -0.891529
    175 H82        -2.1510    1.5760   -4.0970 ho        1 MOL      0.425708
    176 H83        -2.4890    0.1270   -4.3960 ho        1 MOL      0.425708
    177 O24        -1.8310   -1.9950   -2.6280 oh        1 MOL     -0.891529
    178 H84        -2.4700   -2.5950   -3.0060 ho        1 MOL      0.425708
    179 H85        -1.0260   -2.1470   -3.1220 ho        1 MOL      0.425708
@<TRIPOS>BOND
     1    1    2 1   
     2    1    4 1   
     3    1    5 1   
     4    1    6 1   
     5    2    3 2   
     6    2    7 1   
     7    7    8 1   
     8    7   15 1   
     9    8    9 1   
    10    8   11 1   
    11    8   16 1   
    12    9   10 2   
    13    9   19 1   
    14   11   12 1   
    15   11   17 1   
    16   11   18 1   
    17   12   13 1   
    18   12   14 1   
    19   19   20 1   
    20   19   28 1   
    21   20   21 1   
    22   20   23 1   
    23   20   29 1   
    24   21   22 2   
    25   21   41 1   
    26   23   24 1   
    27   23   30 1   
    28   23   31 1   
    29   24   25 1   
    30   24   32 1   
    31   24   33 1   
    32   25   26 1   
    33   25   34 1   
    34   25   35 1   
    35   26   27 1   
    36   26   36 1   
    37   26   37 1   
    38   27   38 1   
    39   27   39 1   
    40   27   40 1   
    41   41   42 1   
    42   41   49 1   
    43   42   43 1   
    44   42   45 1   
    45   42   50 1   
    46   43   44 2   
    47   43   53 1   
    48   45   46 1   
    49   45   51 1   
    50   45   52 1   
    51   46   47 1   
    52   46   48 1   
    53   53   54 1   
    54   53   57 1   
    55   54   55 1   
    56   54   58 1   
    57   54   59 1   
    58   55   56 2   
    59   55   60 1   
    60   60   61 1   
    61   60   68 1   
    62   61   62 1   
    63   61   64 1   
    64   61   69 1   
    65   62   63 2   
    66   62   74 1   
    67   64   65 1   
    68   64   70 1   
    69   64   71 1   
    70   65   66 1   
    71   65   67 2   
    72   66   72 1   
    73   66   73 1   
    74   74   75 1   
    75   74   78 1   
    76   75   76 1   
    77   75   79 1   
    78   75   80 1   
    79   76   77 2   
    80   76   81 1   
    81   81   82 1   
    82   81   93 1   
    83   82   83 1   
    84   82   85 1   
    85   82   94 1   
    86   83   84 2   
    87   83  102 1   
    88   85   86 1   
    89   85   95 1   
    90   85   96 1   
    91   86   87 ar  
    92   86   88 ar  
    93   87   89 ar  
    94   87   97 1   
    95   88   90 ar  
    96   88   98 1   
    97   89   91 ar  
    98   89   99 1   
    99   90   91 ar  
   100   90  100 1   
   101   91   92 1   
   102   92  101 1   
   103  102  103 1   
   104  102  110 1   
   105  103  104 1   
   106  103  106 1   
   107  103  111 1   
   108  104  105 2   
   109  104  121 1   
   110  106  107 1   
   111  106  108 1   
   112  106  112 1   
   113  107  109 1   
   114  107  113 1   
   115  107  114 1   
   116  108  115 1   
   117  108  116 1   
   118  108  117 1   
   119  109  118 1   
   120  109  119 1   
   121  109  120 1   
   122  121  122 1   
   123  121  127 1   
   124  122  123 1   
   125  122  125 1   
   126  122  128 1   
   127  123  124 2   
   128  123  132 1   
   129  125  126 1   
   130  125  129 1   
   131  125  130 1   
   132  126  131 1   
   133  132  133 1   
   134  132  137 1   
   135  133  134 1   
   136  133  136 1   
   137  133  138 1   
   138  134  135 2   
   139  134  142 1   
   140  136  139 1   
   141  136  140 1   
   142  136  141 1   
   143  142  143 1   
   144  142  147 1   
   145  143  144 1   
   146  143  146 1   
   147  143  148 1   
   148  144  145 2   
   149  144  152 1   
   150  146  149 1   
   151  146  150 1   
   152  146  151 1   
   153  152  153 1   
   154  152  161 1   
   155  153  154 1   
   156  153  156 1   
   157  153  162 1   
   158  154  155 2   
   159  154  167 1   
   160  156  157 1   
   161  156  163 1   
   162  156  164 1   
   163  157  158 1   
   164  157  165 1   
   165  157  166 1   
   166  158  159 1   
   167  158  160 1   
   168  167  168 1   
   169  167  172 1   
   170  168  169 1   
   171  168  170 1   
   172  168  171 1   
   173  174  175 1   
   174  174  176 1   
   175  177  178 1   
   176  177  179 1   
@<TRIPOS>SUBSTRUCTURE
     1 MOL         1 TEMP              0 ****  ****    0 ROOT
