@<TRIPOS>MOLECULE
MOL
  185   180     1     0     0
SMALL
resp


@<TRIPOS>ATOM
      1 C1          6.2020    1.4540    5.6370 c3        1 MOL     -0.406374
      2 C2          5.6350    1.3050    4.1810 c         1 MOL      0.561086
      3 O1          4.5150    1.7640    3.8750 o         1 MOL     -0.568388
      4 H1          6.8940    0.6370    5.8420 hc        1 MOL      0.108868
      5 H2          6.7260    2.4050    5.7280 hc        1 MOL      0.108868
      6 H3          5.3800    1.4220    6.3520 hc        1 MOL      0.108868
      7 N1          6.4530    0.8440    3.2590 n         1 MOL     -0.296881
      8 C3          6.0350    0.7230    1.8630 c3        1 MOL      0.089694
      9 C4          5.0450   -0.4290    1.5620 c         1 MOL      0.674267
     10 O2          4.1550   -0.3080    0.7650 o         1 MOL     -0.627095
     11 C5          7.2850    0.7290    0.9580 c3        1 MOL     -0.210986
     12 C6          8.2710    1.8640    1.1890 c         1 MOL      0.668517
     13 O3          9.3990    1.6280    1.7300 o         1 MOL     -0.635384
     14 O4          7.8800    3.0460    0.9230 o         1 MOL     -0.635384
     15 H4          7.3250    0.4220    3.5300 hn        1 MOL      0.213720
     16 H5          5.3720    1.5560    1.6460 h1        1 MOL      0.087033
     17 H6          7.0450    0.8430   -0.1010 hc        1 MOL      0.047508
     18 H7          7.7250   -0.2720    1.0440 hc        1 MOL      0.047508
     19 N2          5.2260   -1.5230    2.2610 n         1 MOL     -0.781285
     20 C7          4.4720   -2.7890    2.0370 c3        1 MOL      0.197222
     21 C8          4.5860   -3.1390    0.5500 c         1 MOL      0.543163
     22 O5          5.6220   -2.9580   -0.0480 o         1 MOL     -0.461735
     23 C9          5.0070   -3.8790    2.9390 c3        1 MOL     -0.210261
     24 C10         4.6940   -3.5560    4.4320 c3        1 MOL      0.190348
     25 C11         5.2730   -4.5930    5.4240 c3        1 MOL     -0.158249
     26 C12         4.7250   -4.3080    6.8620 c3        1 MOL      0.078907
     27 N3          5.2880   -5.1030    7.9660 n4        1 MOL     -0.242270
     28 H8          6.0290   -1.4440    2.8700 hn        1 MOL      0.404901
     29 H9          3.4280   -2.7160    2.3240 h1        1 MOL      0.041756
     30 H10         6.0980   -3.9800    2.9470 hc        1 MOL      0.075821
     31 H11         4.4780   -4.8230    2.7810 hc        1 MOL      0.075821
     32 H12         3.6060   -3.5320    4.4530 hc        1 MOL     -0.043473
     33 H13         5.1030   -2.5920    4.7140 hc        1 MOL     -0.043473
     34 H14         6.3700   -4.5550    5.4360 hc        1 MOL      0.065283
     35 H15         4.9300   -5.5580    5.0640 hc        1 MOL      0.065283
     36 H16         3.6520   -4.5310    6.8010 hx        1 MOL      0.068362
     37 H17         4.8410   -3.2520    7.1210 hx        1 MOL      0.068362
     38 H18         4.9660   -4.7880    8.8700 hn        1 MOL      0.249662
     39 H19         5.1000   -6.0820    7.7970 hn        1 MOL      0.249662
     40 H20         6.2880   -4.9620    8.0240 hn        1 MOL      0.249662
     41 N4          3.5660   -3.7890    0.0260 n         1 MOL     -0.470809
     42 C13         3.4810   -4.1810   -1.3440 c3        1 MOL     -0.026384
     43 C14         3.6170   -3.0180   -2.3160 c         1 MOL      0.611348
     44 O6          3.2080   -1.9100   -2.0980 o         1 MOL     -0.510393
     45 C15         2.2710   -5.0630   -1.6120 c3        1 MOL     -0.293114
     46 C16         0.9080   -4.3840   -1.2890 c         1 MOL      0.658974
     47 O7         -0.1080   -4.8790   -1.8280 o         1 MOL     -0.638537
     48 O8          0.8080   -3.4210   -0.5050 o         1 MOL     -0.638537
     49 H21         2.6710   -3.7040    0.4840 hn        1 MOL      0.261655
     50 H22         4.3510   -4.7900   -1.6200 h1        1 MOL      0.068800
     51 H23         2.3240   -5.8380   -0.8530 hc        1 MOL      0.106487
     52 H24         2.2720   -5.4000   -2.6450 hc        1 MOL      0.106487
     53 N5          4.1640   -3.2660   -3.5420 n         1 MOL     -0.479097
     54 C17         4.6380   -2.3040   -4.5070 c3        1 MOL      0.091477
     55 C18         5.9230   -1.4770   -4.3280 c         1 MOL      0.587656
     56 O9          6.9530   -2.1310   -4.2300 o         1 MOL     -0.571527
     57 H25         4.6050   -4.1610   -3.6870 hn        1 MOL      0.296977
     58 H26         3.8190   -1.6830   -4.8880 h1        1 MOL      0.030487
     59 H27         4.7830   -2.8940   -5.4140 h1        1 MOL      0.030487
     60 N6          5.9710   -0.1440   -4.4500 n         1 MOL     -0.546941
     61 C19         4.9100    0.8730   -4.5410 c3        1 MOL      0.234988
     62 C20         5.3910    2.0780   -3.7350 c         1 MOL      0.532935
     63 O10         6.4430    2.5940   -4.1250 o         1 MOL     -0.529362
     64 C21         4.5980    1.1830   -6.0120 c3        1 MOL     -0.388462
     65 C22         3.9650   -0.0160   -6.7690 c         1 MOL      0.697481
     66 N7          4.7550   -0.7270   -7.5520 n         1 MOL     -0.787224
     67 O11         2.7900   -0.3150   -6.5460 o         1 MOL     -0.557227
     68 H28         6.9280    0.1810   -4.3680 hn        1 MOL      0.326954
     69 H29         3.9650    0.4850   -4.1670 h1        1 MOL      0.013039
     70 H30         5.5010    1.5950   -6.4690 hc        1 MOL      0.099905
     71 H31         3.9070    2.0300   -6.0390 hc        1 MOL      0.099905
     72 H32         5.6940   -0.3870   -7.7150 hn        1 MOL      0.375036
     73 H33         4.4300   -1.5550   -8.0230 hn        1 MOL      0.375036
     74 N8          4.6250    2.5740   -2.7610 n         1 MOL     -0.408386
     75 C23         3.5080    1.9360   -2.0440 c3        1 MOL     -0.166032
     76 C24         2.9250    2.8510   -0.9060 c         1 MOL      0.628893
     77 O12         3.5620    3.6400   -0.2890 o         1 MOL     -0.487069
     78 H34         4.9430    3.3870   -2.2520 hn        1 MOL      0.297764
     79 H35         3.8940    1.0310   -1.5700 h1        1 MOL      0.116316
     80 H36         2.6890    1.7870   -2.7590 h1        1 MOL      0.116316
     81 N9          1.6230    2.6810   -0.7190 n         1 MOL     -0.511056
     82 C25         0.7940    3.5760    0.1260 c3        1 MOL      0.179611
     83 C26        -0.3470    2.6820    0.7140 c         1 MOL      0.691879
     84 O13        -0.6260    1.5710    0.2450 o         1 MOL     -0.590999
     85 C27         0.2780    4.7030   -0.7660 c3        1 MOL     -0.278421
     86 C28        -0.5070    5.8100   -0.0560 ca        1 MOL      0.250912
     87 C29        -1.5440    6.5110   -0.6870 ca        1 MOL     -0.257894
     88 C30        -0.1650    6.2860    1.2250 ca        1 MOL     -0.257894
     89 C31        -2.1310    7.6920   -0.1890 ca        1 MOL     -0.194452
     90 C32        -0.7040    7.4740    1.7510 ca        1 MOL     -0.194452
     91 C33        -1.7220    8.1530    1.0470 ca        1 MOL      0.278014
     92 O14        -2.2310    9.3210    1.5440 oh        1 MOL     -0.461055
     93 H37         1.1830    1.9070   -1.2020 hn        1 MOL      0.248374
     94 H38         1.4100    3.9230    0.9550 h1        1 MOL      0.037722
     95 H39        -0.3750    4.3730   -1.5740 hc        1 MOL      0.098529
     96 H40         1.1740    5.1940   -1.1450 hc        1 MOL      0.098529
     97 H41        -2.0270    6.1510   -1.5750 ha        1 MOL      0.149575
     98 H42         0.6180    5.6930    1.6750 ha        1 MOL      0.149575
     99 H43        -2.9490    8.2230   -0.6400 ha        1 MOL      0.141002
    100 H44        -0.3720    7.8830    2.6950 ha        1 MOL      0.141002
    101 H45        -1.8700    9.4200    2.4350 ho        1 MOL      0.338771
    102 N10        -1.1130    3.1920    1.6550 n         1 MOL     -0.603872
    103 C34        -2.4720    2.6420    1.8050 c3        1 MOL     -0.086829
    104 C35        -3.3350    2.7990    0.5320 c         1 MOL      0.469174
    105 O15        -3.3140    3.8210   -0.1460 o         1 MOL     -0.478256
    106 C36        -3.2430    3.1940    3.0790 c3        1 MOL      0.397588
    107 C37        -2.7590    2.5340    4.4010 c3        1 MOL     -0.034876
    108 C38        -3.2940    4.6760    3.1180 c3        1 MOL     -0.158603
    109 C39        -3.8100    2.4230    5.5140 c3        1 MOL     -0.394945
    110 H46        -0.8450    3.9830    2.2120 hn        1 MOL      0.282139
    111 H47        -2.3040    1.5770    1.9950 h1        1 MOL      0.070831
    112 H48        -4.2860    2.9090    2.9400 hc        1 MOL     -0.052911
    113 H49        -1.9350    3.1660    4.7260 hc        1 MOL      0.026090
    114 H50        -2.3900    1.5480    4.1100 hc        1 MOL      0.026090
    115 H51        -3.8980    4.9340    3.9850 hc        1 MOL      0.021818
    116 H52        -2.2800    5.0210    3.3210 hc        1 MOL      0.021818
    117 H53        -3.6780    5.1220    2.1930 hc        1 MOL      0.021818
    118 H54        -3.8970    1.3610    5.7540 hc        1 MOL      0.107767
    119 H55        -3.4810    2.9770    6.4010 hc        1 MOL      0.107767
    120 H56        -4.7240    2.8340    5.0940 hc        1 MOL      0.107767
    121 N11        -4.0910    1.7580    0.0980 n         1 MOL     -0.247952
    122 C40        -5.1610    1.6360   -0.9270 c3        1 MOL      0.136656
    123 C41        -5.2060    0.4320   -1.8310 c         1 MOL      0.415069
    124 O16        -4.8070   -0.6890   -1.4370 o         1 MOL     -0.390320
    125 C42        -6.5560    1.9060   -0.2770 c3        1 MOL     -0.226252
    126 O17        -7.1410    0.7480    0.3100 oh        1 MOL     -0.473043
    127 H57        -3.8410    0.8660    0.4990 hn        1 MOL      0.120411
    128 H58        -4.9470    2.4780   -1.5870 h1        1 MOL      0.014425
    129 H59        -7.2690    2.1810   -1.0490 h1        1 MOL      0.124348
    130 H60        -6.3930    2.6930    0.4690 h1        1 MOL      0.124348
    131 H61        -7.9790    0.9700    0.7070 ho        1 MOL      0.380225
    132 N12        -5.8490    0.5940   -3.0370 n         1 MOL     -0.443560
    133 C43        -6.4270   -0.5550   -3.8180 c3        1 MOL      0.133056
    134 C44        -7.5570   -1.3710   -3.0830 c         1 MOL      0.472810
    135 O18        -7.5600   -2.5700   -3.1180 o         1 MOL     -0.452424
    136 C45        -5.2740   -1.4060   -4.3990 c3        1 MOL     -0.312026
    137 H62        -6.1070    1.5320   -3.3180 hn        1 MOL      0.290502
    138 H63        -6.8450   -0.1010   -4.7200 h1        1 MOL      0.056478
    139 H64        -4.8220   -1.9390   -3.5570 hc        1 MOL      0.100357
    140 H65        -5.6720   -2.1230   -5.0980 hc        1 MOL      0.100357
    141 H66        -4.5810   -0.6970   -4.8560 hc        1 MOL      0.100357
    142 N13        -8.3250   -0.6230   -2.2520 n         1 MOL     -0.529533
    143 C46        -9.3610   -1.0810   -1.3400 c3        1 MOL      0.329346
    144 C47        -8.8430   -2.1890   -0.3650 c         1 MOL      0.350291
    145 O19        -9.6550   -2.9920    0.2240 o         1 MOL     -0.543737
    146 C48       -10.7380   -1.3690   -1.9770 c3        1 MOL     -0.417272
    147 H67        -8.2120    0.3800   -2.3690 hn        1 MOL      0.246927
    148 H68        -9.6310   -0.3540   -0.5790 h1        1 MOL      0.018326
    149 H69       -11.1250   -0.4790   -2.4710 hc        1 MOL      0.116458
    150 H70       -10.5530   -2.0200   -2.8230 hc        1 MOL      0.116458
    151 H71       -11.5160   -1.6750   -1.2750 hc        1 MOL      0.116458
    152 N14        -7.5430   -2.2210   -0.0410 n         1 MOL     -0.116282
    153 C49        -6.9000   -3.2610    0.8230 c3        1 MOL     -0.162244
    154 C50        -7.4180   -3.3000    2.2390 c         1 MOL      0.504224
    155 O20        -7.2510   -4.3270    2.8790 o         1 MOL     -0.549549
    156 C51        -5.3860   -3.2050    0.6510 c3        1 MOL     -0.021759
    157 C52        -4.6880   -2.1040    1.4650 c3        1 MOL      0.012424
    158 C53        -3.2450   -1.8330    0.9670 c         1 MOL      0.635672
    159 O21        -2.7960   -0.6910    0.6400 o         1 MOL     -0.659022
    160 O22        -2.4290   -2.8220    0.9300 o         1 MOL     -0.659022
    161 H72        -6.9470   -1.5420   -0.4770 hn        1 MOL      0.184439
    162 H73        -7.1600   -4.2470    0.4200 h1        1 MOL      0.138360
    163 H74        -5.1650   -3.1910   -0.4170 hc        1 MOL      0.047222
    164 H75        -4.9560   -4.1600    0.9520 hc        1 MOL      0.047222
    165 H76        -4.7530   -2.2670    2.5410 hc        1 MOL     -0.025677
    166 H77        -5.2860   -1.1900    1.3510 hc        1 MOL     -0.025677
    167 N15        -8.0680   -2.2750    2.6770 n         1 MOL     -0.142468
    168 C54        -8.5860   -2.2110    4.0370 c3        1 MOL     -0.122040
    169 H78        -8.4360   -3.1720    4.5290 h1        1 MOL      0.069097
    170 H79        -8.0590   -1.4340    4.5920 h1        1 MOL      0.069097
    171 H80        -9.6510   -1.9800    4.0110 h1        1 MOL      0.069097
    172 H81        -8.1840   -1.5640    1.9810 hn        1 MOL      0.133578
    173 Ca1        -0.2560   -1.1840   -0.0870 Ca        1 MOL      1.710842
    174 O23        -2.0090   -1.6890   -1.9800 oh        1 MOL     -0.856056
    175 H82        -1.8080   -1.9380   -2.8850 ho        1 MOL      0.408285
    176 H83        -2.9430   -1.4870   -1.9920 ho        1 MOL      0.408285
    177 O24         1.0940   -0.3240   -2.0340 oh        1 MOL     -0.856056
    178 H84         1.8470   -0.8970   -2.1150 ho        1 MOL      0.408285
    179 H85         1.0020    0.0800   -2.9020 ho        1 MOL      0.408285
    180 O25         0.3530   -2.3370    2.3270 oh        1 MOL     -0.856056
    181 H86         0.9330   -3.0850    2.4000 ho        1 MOL      0.408285
    182 H87         0.6990   -1.7010    2.9540 ho        1 MOL      0.408285
    183 O26         1.7240    0.0220    1.1670 oh        1 MOL     -0.856056
    184 H88         2.5860   -0.3750    1.0900 ho        1 MOL      0.408285
    185 H89         1.8870    0.8790    1.5660 ho        1 MOL      0.408285
@<TRIPOS>BOND
     1    1    2 1   
     2    1    4 1   
     3    1    5 1   
     4    1    6 1   
     5    2    3 2   
     6    2    7 1   
     7    7    8 1   
     8    7   15 1   
     9    8    9 1   
    10    8   11 1   
    11    8   16 1   
    12    9   10 2   
    13    9   19 1   
    14   11   12 1   
    15   11   17 1   
    16   11   18 1   
    17   12   13 1   
    18   12   14 1   
    19   19   20 1   
    20   19   28 1   
    21   20   21 1   
    22   20   23 1   
    23   20   29 1   
    24   21   22 2   
    25   21   41 1   
    26   23   24 1   
    27   23   30 1   
    28   23   31 1   
    29   24   25 1   
    30   24   32 1   
    31   24   33 1   
    32   25   26 1   
    33   25   34 1   
    34   25   35 1   
    35   26   27 1   
    36   26   36 1   
    37   26   37 1   
    38   27   38 1   
    39   27   39 1   
    40   27   40 1   
    41   41   42 1   
    42   41   49 1   
    43   42   43 1   
    44   42   45 1   
    45   42   50 1   
    46   43   44 2   
    47   43   53 1   
    48   45   46 1   
    49   45   51 1   
    50   45   52 1   
    51   46   47 1   
    52   46   48 1   
    53   53   54 1   
    54   53   57 1   
    55   54   55 1   
    56   54   58 1   
    57   54   59 1   
    58   55   56 2   
    59   55   60 1   
    60   60   61 1   
    61   60   68 1   
    62   61   62 1   
    63   61   64 1   
    64   61   69 1   
    65   62   63 2   
    66   62   74 1   
    67   64   65 1   
    68   64   70 1   
    69   64   71 1   
    70   65   66 1   
    71   65   67 2   
    72   66   72 1   
    73   66   73 1   
    74   74   75 1   
    75   74   78 1   
    76   75   76 1   
    77   75   79 1   
    78   75   80 1   
    79   76   77 2   
    80   76   81 1   
    81   81   82 1   
    82   81   93 1   
    83   82   83 1   
    84   82   85 1   
    85   82   94 1   
    86   83   84 2   
    87   83  102 1   
    88   85   86 1   
    89   85   95 1   
    90   85   96 1   
    91   86   87 ar  
    92   86   88 ar  
    93   87   89 ar  
    94   87   97 1   
    95   88   90 ar  
    96   88   98 1   
    97   89   91 ar  
    98   89   99 1   
    99   90   91 ar  
   100   90  100 1   
   101   91   92 1   
   102   92  101 1   
   103  102  103 1   
   104  102  110 1   
   105  103  104 1   
   106  103  106 1   
   107  103  111 1   
   108  104  105 2   
   109  104  121 1   
   110  106  107 1   
   111  106  108 1   
   112  106  112 1   
   113  107  109 1   
   114  107  113 1   
   115  107  114 1   
   116  108  115 1   
   117  108  116 1   
   118  108  117 1   
   119  109  118 1   
   120  109  119 1   
   121  109  120 1   
   122  121  122 1   
   123  121  127 1   
   124  122  123 1   
   125  122  125 1   
   126  122  128 1   
   127  123  124 2   
   128  123  132 1   
   129  125  126 1   
   130  125  129 1   
   131  125  130 1   
   132  126  131 1   
   133  132  133 1   
   134  132  137 1   
   135  133  134 1   
   136  133  136 1   
   137  133  138 1   
   138  134  135 2   
   139  134  142 1   
   140  136  139 1   
   141  136  140 1   
   142  136  141 1   
   143  142  143 1   
   144  142  147 1   
   145  143  144 1   
   146  143  146 1   
   147  143  148 1   
   148  144  145 2   
   149  144  152 1   
   150  146  149 1   
   151  146  150 1   
   152  146  151 1   
   153  152  153 1   
   154  152  161 1   
   155  153  154 1   
   156  153  156 1   
   157  153  162 1   
   158  154  155 2   
   159  154  167 1   
   160  156  157 1   
   161  156  163 1   
   162  156  164 1   
   163  157  158 1   
   164  157  165 1   
   165  157  166 1   
   166  158  159 1   
   167  158  160 1   
   168  167  168 1   
   169  167  172 1   
   170  168  169 1   
   171  168  170 1   
   172  168  171 1   
   173  174  175 1   
   174  174  176 1   
   175  177  178 1   
   176  177  179 1   
   177  180  181 1   
   178  180  182 1   
   179  183  184 1   
   180  183  185 1   
@<TRIPOS>SUBSTRUCTURE
     1 MOL         1 TEMP              0 ****  ****    0 ROOT
