@<TRIPOS>MOLECULE
MOL
  178   175     1     0     0
SMALL
resp


@<TRIPOS>ATOM
      1 C1         -2.0870   -5.1710   -2.5130 c3        1 MOL     -0.373745
      2 C2         -3.2940   -5.4530   -1.7630 c         1 MOL      0.704401
      3 O1         -3.0890   -6.0320   -0.7070 o         1 MOL     -0.572854
      4 H1         -1.2220   -5.2590   -1.8560 hc        1 MOL      0.087928
      5 H2         -1.9930   -5.8820   -3.3340 hc        1 MOL      0.087928
      6 H3         -2.1350   -4.1590   -2.9130 hc        1 MOL      0.087928
      7 N1         -4.4650   -5.0810   -2.2230 n         1 MOL     -0.568649
      8 C3         -5.7360   -5.1500   -1.5070 c3        1 MOL      0.237505
      9 C4         -5.8890   -4.1680   -0.3120 c         1 MOL      0.495825
     10 O2         -6.7610   -3.3030   -0.2330 o         1 MOL     -0.476852
     11 C5         -6.7560   -5.0360   -2.6500 c3        1 MOL     -0.306981
     12 C6         -8.1920   -4.9500   -2.0390 c         1 MOL      0.757256
     13 O3         -9.0530   -4.3040   -2.6180 o         1 MOL     -0.721300
     14 O4         -8.5270   -5.6880   -1.0880 o         1 MOL     -0.721300
     15 H4         -4.5550   -4.5900   -3.1010 hn        1 MOL      0.299717
     16 H5         -5.9000   -6.1230   -1.0600 h1        1 MOL      0.020105
     17 H6         -6.6330   -5.8450   -3.3740 hc        1 MOL      0.037865
     18 H7         -6.6440   -4.0800   -3.1700 hc        1 MOL      0.037865
     19 N2         -4.9860   -4.3220    0.6730 n         1 MOL     -0.512833
     20 C7         -4.9480   -3.6330    1.9720 c3        1 MOL      0.448191
     21 C8         -3.5290   -3.6890    2.6380 c         1 MOL      0.538665
     22 O5         -2.8320   -4.6470    2.4160 o         1 MOL     -0.555732
     23 C9         -5.9800   -4.1950    2.9840 c3        1 MOL     -0.463670
     24 H8         -4.3500   -5.1020    0.6040 hn        1 MOL      0.234106
     25 H9         -5.1210   -2.5910    1.6960 h1        1 MOL     -0.063275
     26 H10        -5.8560   -5.2510    3.2250 hc        1 MOL      0.111678
     27 H11        -5.7960   -3.7900    3.9830 hc        1 MOL      0.111678
     28 H12        -7.0140   -4.0380    2.6600 hc        1 MOL      0.111678
     29 N3         -3.0980   -2.6370    3.2890 n         1 MOL     -0.564356
     30 C10        -3.8870   -1.4450    3.6170 c3        1 MOL      0.235538
     31 C11        -4.0140   -0.4060    2.5220 c         1 MOL      0.453155
     32 O6         -3.0290   -0.2220    1.8080 o         1 MOL     -0.521590
     33 C12        -3.2920   -0.6320    4.8130 c3        1 MOL     -0.289654
     34 C13        -1.7230   -0.5580    4.8660 c         1 MOL      0.711902
     35 O7         -0.9990   -1.3000    5.5160 o         1 MOL     -0.674400
     36 O8         -1.1600    0.2790    4.1200 o         1 MOL     -0.674400
     37 H13        -2.1090   -2.6310    3.4980 hn        1 MOL      0.364835
     38 H14        -4.8810   -1.7720    3.9520 h1        1 MOL      0.008178
     39 H15        -3.6610   -1.0020    5.7720 hc        1 MOL      0.035316
     40 H16        -3.6450    0.3920    4.7140 hc        1 MOL      0.035316
     41 N4         -5.0990    0.3860    2.5100 n         1 MOL     -0.492143
     42 C14        -5.5190    1.3460    1.4640 c3        1 MOL      0.277836
     43 C15        -5.7330    0.7500    0.0240 c         1 MOL      0.480976
     44 O9         -5.5290   -0.4820   -0.1250 o         1 MOL     -0.455369
     45 H17        -5.8960    0.0710    3.0390 hn        1 MOL      0.280522
     46 H18        -4.7040    2.0690    1.4180 h1        1 MOL     -0.047448
     47 H19        -6.4080    1.9490    1.6910 h1        1 MOL     -0.047448
     48 N5         -6.0690    1.5520   -0.9830 n         1 MOL     -0.668162
     49 C16        -6.1460    3.0410   -0.9810 c3        1 MOL      0.599796
     50 C17        -4.8320    3.6760   -1.6610 c         1 MOL      0.293197
     51 O10        -3.9840    2.9190   -2.1140 o         1 MOL     -0.458569
     52 C18        -7.5060    3.4870   -1.5630 c3        1 MOL     -0.250350
     53 C19        -8.8380    3.0220   -0.9550 c         1 MOL      0.718356
     54 N6         -9.8370    3.8920   -1.1100 n         1 MOL     -0.847603
     55 O11        -9.0100    1.9710   -0.3360 o         1 MOL     -0.512176
     56 H20        -6.1440    1.0630   -1.8680 hn        1 MOL      0.357429
     57 H21        -6.1760    3.5040    0.0050 h1        1 MOL     -0.069465
     58 H22        -7.5870    3.1490   -2.5930 hc        1 MOL      0.014018
     59 H23        -7.5160    4.5820   -1.4910 hc        1 MOL      0.014018
     60 H24        -9.5950    4.7360   -1.6210 hn        1 MOL      0.382051
     61 H25       -10.7840    3.5600   -0.9660 hn        1 MOL      0.382051
     62 N7         -4.6450    5.0090   -1.7490 n         1 MOL     -0.494809
     63 C20        -3.6830    5.6340   -2.7230 c3        1 MOL      0.004011
     64 C21        -2.3020    6.0830   -2.1890 c         1 MOL      0.435247
     65 O12        -1.8030    7.2560   -2.3950 o         1 MOL     -0.527590
     66 H26        -5.1560    5.6660   -1.1820 hn        1 MOL      0.328343
     67 H27        -4.2200    6.4710   -3.1720 h1        1 MOL      0.099495
     68 H28        -3.4940    4.9730   -3.5700 h1        1 MOL      0.099495
     69 N8         -1.7110    5.1820   -1.3810 n         1 MOL     -0.476907
     70 C22        -0.3720    5.4320   -0.7530 c3        1 MOL      0.082623
     71 C23         0.5560    4.2340   -0.7750 c         1 MOL      0.617541
     72 O13         0.1740    3.1690   -0.2980 o         1 MOL     -0.530301
     73 C24        -0.4930    5.9140    0.7020 c3        1 MOL      0.275215
     74 C25         0.8050    6.3580    1.4050 c3        1 MOL     -0.124153
     75 O14        -1.4440    6.9310    0.8500 oh        1 MOL     -0.582047
     76 H29        -2.1320    4.2980   -1.1400 hn        1 MOL      0.282619
     77 H30         0.0000    6.3060   -1.2770 h1        1 MOL      0.092915
     78 H31        -0.8390    5.1390    1.3870 h1        1 MOL      0.041093
     79 H32        -2.3010    6.5120    0.7280 ho        1 MOL      0.325239
     80 H33         1.4230    5.4860    1.6450 hc        1 MOL      0.035965
     81 H34         1.3720    7.0720    0.7970 hc        1 MOL      0.035965
     82 H35         0.6040    6.7770    2.3910 hc        1 MOL      0.035965
     83 N9          1.7020    4.4540   -1.4100 n         1 MOL     -0.644372
     84 C26         2.7890    3.4200   -1.4230 c3        1 MOL      0.154552
     85 C27         3.6060    3.6500   -0.1710 c         1 MOL      0.148362
     86 O15         3.9880    4.7730    0.1950 o         1 MOL     -0.498194
     87 C28         3.6700    3.3240   -2.6880 c3        1 MOL      0.323056
     88 C29         4.8260    2.2920   -2.5830 c3        1 MOL     -0.039090
     89 C30         2.8990    3.1210   -3.9890 c3        1 MOL     -0.312635
     90 C31         5.7510    2.0690   -3.8410 c3        1 MOL     -0.171937
     91 H36         2.0610    5.3840   -1.5450 hn        1 MOL      0.317455
     92 H37         2.3740    2.4210   -1.2560 h1        1 MOL      0.115001
     93 H38         4.1780    4.2670   -2.9010 hc        1 MOL     -0.048552
     94 H39         4.4990    1.2560   -2.4930 hc        1 MOL      0.018575
     95 H40         5.5070    2.4790   -1.7600 hc        1 MOL      0.018575
     96 H41         1.9820    3.6960   -3.9050 hc        1 MOL      0.069792
     97 H42         3.3950    3.5050   -4.8850 hc        1 MOL      0.069792
     98 H43         2.4980    2.1140   -4.1190 hc        1 MOL      0.069792
     99 H44         6.5840    1.4610   -3.4830 hc        1 MOL      0.030321
    100 H45         5.2970    1.5560   -4.6900 hc        1 MOL      0.030321
    101 H46         6.1700    2.9780   -4.2800 hc        1 MOL      0.030321
    102 N10         3.8750    2.5790    0.6080 n         1 MOL     -0.082609
    103 C32         4.5160    2.5330    1.9050 c3        1 MOL      0.016837
    104 C33         5.3400    1.2330    2.1320 c         1 MOL      0.399352
    105 O16         5.9170    1.1000    3.1860 o         1 MOL     -0.515277
    106 C34         3.4670    2.8520    3.0160 c3        1 MOL      0.048480
    107 C35         2.0510    2.3200    2.8030 c         1 MOL      0.658799
    108 O17         1.9450    1.0770    2.8160 o         1 MOL     -0.740037
    109 O18         1.0400    3.0320    2.5350 o         1 MOL     -0.740037
    110 H47         3.5560    1.7030    0.2090 hn        1 MOL      0.170733
    111 H48         5.2610    3.3260    1.8390 h1        1 MOL      0.084796
    112 H49         3.6090    3.9340    3.0980 hc        1 MOL     -0.009562
    113 H50         3.8910    2.4680    3.9370 hc        1 MOL     -0.009562
    114 N11         5.4130    0.3240    1.1170 n         1 MOL     -0.343412
    115 C36         6.4170   -0.7660    1.1140 c3        1 MOL      0.350746
    116 C37         5.8490   -2.0490    0.3900 c         1 MOL      0.163421
    117 O19         6.2850   -2.4490   -0.6820 o         1 MOL     -0.474777
    118 C38         7.6120   -0.1090    0.3640 c3        1 MOL     -0.293361
    119 C39         8.9390   -0.8060    0.6660 ca        1 MOL      0.013744
    120 C40         9.4280   -1.7890   -0.2440 ca        1 MOL     -0.052651
    121 C41         9.7380   -0.4910    1.7800 ca        1 MOL     -0.052651
    122 C42        10.7140   -2.3500   -0.1590 ca        1 MOL     -0.226784
    123 C43        11.0370   -0.9730    1.8540 ca        1 MOL     -0.226784
    124 C44        11.4370   -1.9680    0.9290 ca        1 MOL     -0.017245
    125 H51         4.7840    0.4810    0.3450 hn        1 MOL      0.129468
    126 H52         6.6470   -0.9150    2.1730 h1        1 MOL      0.007009
    127 H53         7.7110    0.9560    0.5850 hc        1 MOL      0.117904
    128 H54         7.3820   -0.1450   -0.6980 hc        1 MOL      0.117904
    129 H55         8.8200   -1.9250   -1.1210 ha        1 MOL      0.098347
    130 H56         9.2610    0.1000    2.5460 ha        1 MOL      0.098347
    131 H57        11.0840   -3.0480   -0.9040 ha        1 MOL      0.126788
    132 H58        11.6680   -0.7130    2.6940 ha        1 MOL      0.126788
    133 H59        12.3850   -2.4510    1.1140 ha        1 MOL      0.062322
    134 N12         4.7180   -2.5420    0.8880 n         1 MOL      0.039784
    135 C45         4.0820   -3.7840    0.3880 c3        1 MOL      0.066462
    136 C46         3.6480   -3.8510   -1.0630 c         1 MOL      0.146102
    137 O20         3.6110   -4.9270   -1.6890 o         1 MOL     -0.472435
    138 C47         2.8920   -4.1170    1.2920 c3        1 MOL     -0.025369
    139 C48         3.2220   -3.3800    2.5940 c3        1 MOL      0.120950
    140 C49         4.1730   -2.2000    2.1860 c3        1 MOL     -0.275120
    141 H60         4.7570   -4.6210    0.5800 h1        1 MOL      0.054370
    142 H61         2.0130   -3.6290    0.8660 hc        1 MOL      0.026390
    143 H62         2.7920   -5.1720    1.5070 hc        1 MOL      0.026390
    144 H63         2.4040   -3.1850    3.2900 hc        1 MOL     -0.003068
    145 H64         3.8910   -4.0410    3.1530 hc        1 MOL     -0.003068
    146 H65         3.5680   -1.3080    2.0370 h1        1 MOL      0.143512
    147 H66         4.9570   -2.0810    2.9440 h1        1 MOL      0.143512
    148 N13         3.4650   -2.6450   -1.6480 n         1 MOL      0.113420
    149 C50         2.9600   -2.4660   -3.0140 c3        1 MOL     -0.331557
    150 C51         3.9660   -3.0380   -4.0680 c         1 MOL      0.524770
    151 O21         3.6560   -3.7380   -5.0020 o         1 MOL     -0.529196
    152 C52         2.5220   -0.9850   -3.2160 c3        1 MOL      0.171418
    153 C53         1.4600   -0.4400   -2.2140 c3        1 MOL     -0.327019
    154 C54         2.0230   -0.1890   -0.8050 c         1 MOL      0.556570
    155 O22         1.1830   -0.1040    0.0860 o         1 MOL     -0.663664
    156 O23         3.2470   -0.0010   -0.5760 o         1 MOL     -0.663664
    157 H67         3.7400   -1.8460   -1.0880 hn        1 MOL      0.278113
    158 H68         2.1580   -3.1830   -3.1880 h1        1 MOL      0.127453
    159 H69         2.1040   -0.9120   -4.2220 hc        1 MOL     -0.018553
    160 H70         3.4280   -0.3880   -3.1860 hc        1 MOL     -0.018553
    161 H71         0.6130   -1.1180   -2.1020 hc        1 MOL      0.098379
    162 H72         1.1570    0.5310   -2.6260 hc        1 MOL      0.098379
    163 N14         5.2690   -2.6930   -3.8810 n         1 MOL     -0.192564
    164 C55         6.3970   -3.0650   -4.8100 c3        1 MOL     -0.200248
    165 H73         6.5220   -2.2840   -5.5590 h1        1 MOL      0.086172
    166 H74         7.3190   -3.1700   -4.2380 h1        1 MOL      0.086172
    167 H75         6.1650   -4.0080   -5.3040 h1        1 MOL      0.086172
    168 H76         5.6010   -2.3260   -3.0110 hn        1 MOL      0.179233
    169 Ca1        -0.4900    1.0420    1.5820 Ca        1 MOL      1.789562
    170 O24        -2.1160    3.0970    2.2340 oh        1 MOL     -0.885607
    171 H77        -2.2360    3.3360    3.1580 ho        1 MOL      0.421506
    172 H78        -2.9130    3.4000    1.8040 ho        1 MOL      0.421506
    173 O25        -0.1900   -1.6210    1.8160 oh        1 MOL     -0.885607
    174 H79        -0.3870   -2.5350    2.0110 ho        1 MOL      0.421506
    175 H80         0.3860   -1.6660    1.0450 ho        1 MOL      0.421506
    176 O26        -2.4760    0.9360   -0.8380 oh        1 MOL     -0.885607
    177 H81        -2.9700    1.6150   -1.3100 ho        1 MOL      0.421506
    178 H82        -3.1290    0.2530   -0.6450 ho        1 MOL      0.421506
@<TRIPOS>BOND
     1    1    2 1   
     2    1    4 1   
     3    1    5 1   
     4    1    6 1   
     5    2    3 2   
     6    2    7 1   
     7    7    8 1   
     8    7   15 1   
     9    8    9 1   
    10    8   11 1   
    11    8   16 1   
    12    9   10 2   
    13    9   19 1   
    14   11   12 1   
    15   11   17 1   
    16   11   18 1   
    17   12   13 1   
    18   12   14 1   
    19   19   20 1   
    20   19   24 1   
    21   20   21 1   
    22   20   23 1   
    23   20   25 1   
    24   21   22 2   
    25   21   29 1   
    26   23   26 1   
    27   23   27 1   
    28   23   28 1   
    29   29   30 1   
    30   29   37 1   
    31   30   31 1   
    32   30   33 1   
    33   30   38 1   
    34   31   32 2   
    35   31   41 1   
    36   33   34 1   
    37   33   39 1   
    38   33   40 1   
    39   34   35 1   
    40   34   36 1   
    41   41   42 1   
    42   41   45 1   
    43   42   43 1   
    44   42   46 1   
    45   42   47 1   
    46   43   44 2   
    47   43   48 1   
    48   48   49 1   
    49   48   56 1   
    50   49   50 1   
    51   49   52 1   
    52   49   57 1   
    53   50   51 2   
    54   50   62 1   
    55   52   53 1   
    56   52   58 1   
    57   52   59 1   
    58   53   54 1   
    59   53   55 2   
    60   54   60 1   
    61   54   61 1   
    62   62   63 1   
    63   62   66 1   
    64   63   64 1   
    65   63   67 1   
    66   63   68 1   
    67   64   65 2   
    68   64   69 1   
    69   69   70 1   
    70   69   76 1   
    71   70   71 1   
    72   70   73 1   
    73   70   77 1   
    74   71   72 2   
    75   71   83 1   
    76   73   74 1   
    77   73   75 1   
    78   73   78 1   
    79   74   80 1   
    80   74   81 1   
    81   74   82 1   
    82   75   79 1   
    83   83   84 1   
    84   83   91 1   
    85   84   85 1   
    86   84   87 1   
    87   84   92 1   
    88   85   86 2   
    89   85  102 1   
    90   87   88 1   
    91   87   89 1   
    92   87   93 1   
    93   88   90 1   
    94   88   94 1   
    95   88   95 1   
    96   89   96 1   
    97   89   97 1   
    98   89   98 1   
    99   90   99 1   
   100   90  100 1   
   101   90  101 1   
   102  102  103 1   
   103  102  110 1   
   104  103  104 1   
   105  103  106 1   
   106  103  111 1   
   107  104  105 2   
   108  104  114 1   
   109  106  107 1   
   110  106  112 1   
   111  106  113 1   
   112  107  108 1   
   113  107  109 1   
   114  114  115 1   
   115  114  125 1   
   116  115  116 1   
   117  115  118 1   
   118  115  126 1   
   119  116  117 2   
   120  116  134 1   
   121  118  119 1   
   122  118  127 1   
   123  118  128 1   
   124  119  120 ar  
   125  119  121 ar  
   126  120  122 ar  
   127  120  129 1   
   128  121  123 ar  
   129  121  130 1   
   130  122  124 ar  
   131  122  131 1   
   132  123  124 ar  
   133  123  132 1   
   134  124  133 1   
   135  134  135 1   
   136  134  140 1   
   137  135  136 1   
   138  135  138 1   
   139  135  141 1   
   140  136  137 2   
   141  136  148 1   
   142  138  139 1   
   143  138  142 1   
   144  138  143 1   
   145  139  140 1   
   146  139  144 1   
   147  139  145 1   
   148  140  146 1   
   149  140  147 1   
   150  148  149 1   
   151  148  157 1   
   152  149  150 1   
   153  149  152 1   
   154  149  158 1   
   155  150  151 2   
   156  150  163 1   
   157  152  153 1   
   158  152  159 1   
   159  152  160 1   
   160  153  154 1   
   161  153  161 1   
   162  153  162 1   
   163  154  155 1   
   164  154  156 1   
   165  163  164 1   
   166  163  168 1   
   167  164  165 1   
   168  164  166 1   
   169  164  167 1   
   170  170  171 1   
   171  170  172 1   
   172  173  174 1   
   173  173  175 1   
   174  176  177 1   
   175  176  178 1   
@<TRIPOS>SUBSTRUCTURE
     1 MOL         1 TEMP              0 ****  ****    0 ROOT
