@<TRIPOS>MOLECULE
MOL
  178   175     1     0     0
SMALL
resp


@<TRIPOS>ATOM
      1 C1          1.6780    5.9710   -1.6110 c3        1 MOL     -0.412972
      2 C2          3.0750    5.9440   -1.0050 c         1 MOL      0.761437
      3 O1          3.1760    6.4790    0.1030 o         1 MOL     -0.605964
      4 H1          1.0200    6.5680   -0.9780 hc        1 MOL      0.102076
      5 H2          1.7210    6.4120   -2.6070 hc        1 MOL      0.102076
      6 H3          1.2910    4.9540   -1.6790 hc        1 MOL      0.102076
      7 N1          4.1020    5.3820   -1.6570 n         1 MOL     -0.790520
      8 C3          5.4480    5.4550   -1.1970 c3        1 MOL      0.652086
      9 C4          5.8310    4.3690   -0.1750 c         1 MOL      0.412829
     10 O2          6.6660    3.4880   -0.3990 o         1 MOL     -0.503913
     11 C5          6.4120    5.6450   -2.3350 c3        1 MOL     -0.469273
     12 C6          7.7630    6.1140   -1.9180 c         1 MOL      0.816787
     13 O3          8.0350    6.5660   -0.8090 o         1 MOL     -0.751216
     14 O4          8.6920    6.0480   -2.7650 o         1 MOL     -0.751216
     15 H4          3.9070    4.9260   -2.5460 hn        1 MOL      0.346326
     16 H5          5.5670    6.3810   -0.6200 h1        1 MOL     -0.039381
     17 H6          5.9200    6.3760   -2.9770 hc        1 MOL      0.048580
     18 H7          6.4970    4.7010   -2.8760 hc        1 MOL      0.048580
     19 N2          5.1710    4.3460    0.9510 n         1 MOL     -0.649548
     20 C7          5.2650    3.2530    1.9580 c3        1 MOL      0.556767
     21 C8          3.8470    2.8200    2.4390 c         1 MOL      0.409759
     22 O5          2.8960    3.4060    2.1250 o         1 MOL     -0.512522
     23 C9          6.2060    3.6500    3.0950 c3        1 MOL     -0.312899
     24 H8          4.4280    5.0050    1.1250 hn        1 MOL      0.308232
     25 H9          5.7530    2.3660    1.5560 h1        1 MOL     -0.028358
     26 H10         7.1800    3.9740    2.7320 hc        1 MOL      0.069021
     27 H11         5.7810    4.4350    3.7260 hc        1 MOL      0.069021
     28 H12         6.3960    2.8640    3.8400 hc        1 MOL      0.069021
     29 N3          3.6160    1.8290    3.2910 n         1 MOL     -0.445279
     30 C10         4.4580    0.6430    3.4910 c3        1 MOL      0.094778
     31 C11         4.9910   -0.1230    2.2420 c         1 MOL      0.540888
     32 O6          4.3400    0.0360    1.1830 o         1 MOL     -0.492682
     33 C12         3.7550   -0.4420    4.2600 c3        1 MOL     -0.398695
     34 C13         2.3770   -0.8360    3.6470 c         1 MOL      0.816434
     35 O7          2.3530   -1.7200    2.7720 o         1 MOL     -0.780981
     36 O8          1.3570   -0.1240    3.8070 o         1 MOL     -0.780981
     37 H13         2.6820    1.8340    3.6770 hn        1 MOL      0.336116
     38 H14         5.3610    0.9330    4.0210 h1        1 MOL      0.004698
     39 H15         3.5410   -0.0720    5.2600 hc        1 MOL      0.101886
     40 H16         4.3330   -1.3650    4.2750 hc        1 MOL      0.101886
     41 N4          6.0190   -0.9170    2.4130 n         1 MOL     -0.418280
     42 C14         6.7320   -1.6560    1.3080 c3        1 MOL      0.069188
     43 C15         8.0420   -1.0410    0.8010 c         1 MOL      0.584904
     44 O9          8.5390   -0.1140    1.4680 o         1 MOL     -0.550081
     45 H17         6.4750   -0.9590    3.3140 hn        1 MOL      0.289848
     46 H18         6.0690   -1.8300    0.4640 h1        1 MOL      0.029255
     47 H19         6.9840   -2.6080    1.7850 h1        1 MOL      0.029255
     48 N5          8.6210   -1.4700   -0.3360 n         1 MOL     -0.473385
     49 C16         8.0910   -2.5230   -1.1230 c3        1 MOL      0.113420
     50 C17         6.7330   -2.2090   -1.8370 c         1 MOL      0.591248
     51 O10         6.5130   -1.0390   -2.1260 o         1 MOL     -0.493401
     52 C18         9.1890   -3.0700   -2.0650 c3        1 MOL     -0.230705
     53 C19        10.4900   -3.4340   -1.3720 c         1 MOL      0.638968
     54 N6         11.5140   -2.6200   -1.4850 n         1 MOL     -0.765619
     55 O11        10.5050   -4.4110   -0.6870 o         1 MOL     -0.540598
     56 H20         9.5750   -1.1410   -0.4490 hn        1 MOL      0.303598
     57 H21         7.8860   -3.3360   -0.4290 h1        1 MOL     -0.004647
     58 H22         9.4320   -2.3860   -2.8740 hc        1 MOL      0.060253
     59 H23         8.7930   -3.9230   -2.6200 hc        1 MOL      0.060253
     60 H24        11.3540   -1.8090   -2.0610 hn        1 MOL      0.368840
     61 H25        12.4210   -3.0250   -1.2890 hn        1 MOL      0.368840
     62 N7          5.8700   -3.1860   -1.9420 n         1 MOL     -0.472887
     63 C20         4.4260   -2.8430   -2.0560 c3        1 MOL     -0.134498
     64 C21         3.4320   -4.0190   -2.2010 c         1 MOL      0.690040
     65 O12         3.6570   -4.9000   -3.0290 o         1 MOL     -0.545893
     66 H26         6.0770   -4.1190   -1.6100 hn        1 MOL      0.298206
     67 H27         4.3830   -2.2280   -2.9560 h1        1 MOL      0.089416
     68 H28         4.1880   -2.2040   -1.2100 h1        1 MOL      0.089416
     69 N8          2.3870   -3.9410   -1.3580 n         1 MOL     -0.685917
     70 C22         1.0400   -4.5430   -1.6190 c3        1 MOL      0.135586
     71 C23        -0.1270   -3.5680   -1.2720 c         1 MOL      0.622030
     72 O13         0.0790   -2.5360   -0.6190 o         1 MOL     -0.600894
     73 C24         0.8650   -5.9830   -0.8880 c3        1 MOL      0.349068
     74 C25         1.8170   -6.9890   -1.5430 c3        1 MOL     -0.528105
     75 O14         0.9550   -5.8210    0.5330 oh        1 MOL     -0.611678
     76 H29         2.4600   -3.2700   -0.6100 hn        1 MOL      0.445114
     77 H30         0.9780   -4.6680   -2.6950 h1        1 MOL      0.069764
     78 H31        -0.1310   -6.3150   -1.1770 h1        1 MOL     -0.032521
     79 H32         0.9630   -6.7060    0.8870 ho        1 MOL      0.408247
     80 H33         2.8510   -6.7250   -1.3270 hc        1 MOL      0.145778
     81 H34         1.7340   -7.9890   -1.1050 hc        1 MOL      0.145778
     82 H35         1.6530   -6.8300   -2.6050 hc        1 MOL      0.145778
     83 N9         -1.3580   -3.9590   -1.6900 n         1 MOL     -0.665538
     84 C26        -2.6090   -3.1620   -1.4520 c3        1 MOL      0.042474
     85 C27        -3.1600   -3.6940   -0.1280 c         1 MOL      0.505203
     86 O15        -3.2780   -4.9120    0.0560 o         1 MOL     -0.565268
     87 C28        -3.6110   -3.3640   -2.6180 c3        1 MOL      0.262454
     88 C29        -4.6810   -2.3270   -2.4100 c3        1 MOL      0.090492
     89 C30        -2.9040   -3.1160   -3.9640 c3        1 MOL     -0.469674
     90 C31        -5.8340   -2.3680   -3.4650 c3        1 MOL     -0.287023
     91 H36        -1.4970   -4.9110   -2.0060 hn        1 MOL      0.336846
     92 H37        -2.3550   -2.1100   -1.3380 h1        1 MOL      0.170409
     93 H38        -3.9460   -4.4000   -2.5940 hc        1 MOL     -0.017562
     94 H39        -4.2090   -1.3480   -2.3990 hc        1 MOL     -0.023779
     95 H40        -5.0850   -2.6240   -1.4400 hc        1 MOL     -0.023779
     96 H41        -2.3020   -4.0040   -4.1640 hc        1 MOL      0.110739
     97 H42        -3.6890   -2.9920   -4.7120 hc        1 MOL      0.110739
     98 H43        -2.2100   -2.2810   -3.9860 hc        1 MOL      0.110739
     99 H44        -6.6720   -1.7810   -3.0850 hc        1 MOL      0.060753
    100 H45        -5.4490   -1.9460   -4.3890 hc        1 MOL      0.060753
    101 H46        -6.2390   -3.3810   -3.5500 hc        1 MOL      0.060753
    102 N10        -3.7790   -2.7500    0.6020 n         1 MOL     -0.266713
    103 C32        -4.5820   -3.0510    1.8360 c3        1 MOL     -0.029366
    104 C33        -5.8310   -2.0820    1.9980 c         1 MOL      0.329040
    105 O16        -6.6050   -2.2280    2.9440 o         1 MOL     -0.519949
    106 C34        -3.7660   -2.8030    3.1530 c3        1 MOL     -0.040974
    107 C35        -2.9640   -1.6100    3.4050 c         1 MOL      0.781898
    108 O17        -1.8380   -1.4790    2.8810 o         1 MOL     -0.726278
    109 O18        -3.3530   -0.8010    4.2350 o         1 MOL     -0.726278
    110 H47        -3.5140   -1.8030    0.3790 hn        1 MOL      0.017492
    111 H48        -4.9430   -4.0730    1.7490 h1        1 MOL      0.122247
    112 H49        -3.0430   -3.6220    3.0990 hc        1 MOL     -0.006686
    113 H50        -4.3700   -2.8690    4.0610 hc        1 MOL     -0.006686
    114 N11        -6.0040   -1.0970    1.1140 n         1 MOL     -0.090143
    115 C36        -7.2060   -0.3210    1.0140 c3        1 MOL      0.015734
    116 C37        -6.9140    1.0970    0.4340 c         1 MOL      0.254657
    117 O19        -7.3200    1.4240   -0.6610 o         1 MOL     -0.319928
    118 C38        -8.2230   -1.1100    0.1420 c3        1 MOL     -0.245342
    119 C39        -9.6290   -0.5290    0.0760 ca        1 MOL     -0.016026
    120 C40       -10.2410    0.1100    1.2070 ca        1 MOL     -0.055723
    121 C41       -10.1380   -0.3670   -1.2080 ca        1 MOL     -0.055723
    122 C42       -11.3630    0.8910    1.0410 ca        1 MOL     -0.214611
    123 C43       -11.3150    0.3940   -1.4030 ca        1 MOL     -0.214611
    124 C44       -11.8850    1.0450   -0.2830 ca        1 MOL     -0.040567
    125 H51        -5.3010   -0.9680    0.3990 hn        1 MOL      0.181732
    126 H52        -7.5950   -0.1620    2.0210 h1        1 MOL      0.086986
    127 H53        -8.2650   -2.1280    0.5330 hc        1 MOL      0.108725
    128 H54        -7.7810   -1.3900   -0.8140 hc        1 MOL      0.108725
    129 H55        -9.8120    0.1140    2.2090 ha        1 MOL      0.101905
    130 H56        -9.6770   -0.9460   -1.9870 ha        1 MOL      0.101905
    131 H57       -11.6670    1.4910    1.8850 ha        1 MOL      0.133241
    132 H58       -11.6070    0.5670   -2.4280 ha        1 MOL      0.133241
    133 H59       -12.7790    1.6410   -0.3760 ha        1 MOL      0.075224
    134 N12        -6.0870    1.9320    1.2430 n         1 MOL     -0.078512
    135 C45        -5.9590    3.3000    0.8630 c3        1 MOL     -0.160272
    136 C46        -5.2480    3.6590   -0.4300 c         1 MOL      0.230829
    137 O20        -5.3880    4.7420   -1.0010 o         1 MOL     -0.468279
    138 C47        -5.2360    3.9220    2.0960 c3        1 MOL     -0.104882
    139 C48        -5.4730    3.0350    3.2710 c3        1 MOL     -0.326119
    140 C49        -5.6420    1.6500    2.5960 c3        1 MOL      0.330502
    141 H60        -6.9660    3.7140    0.9400 h1        1 MOL      0.118016
    142 H61        -4.1510    3.9610    1.9410 hc        1 MOL      0.093005
    143 H62        -5.6520    4.9070    2.2840 hc        1 MOL      0.093005
    144 H63        -4.6350    2.8690    3.9630 hc        1 MOL      0.094666
    145 H64        -6.4720    3.2760    3.6470 hc        1 MOL      0.094666
    146 H65        -4.7590    1.0150    2.6220 h1        1 MOL      0.013791
    147 H66        -6.3800    1.1400    3.2130 h1        1 MOL      0.013791
    148 N13        -4.5620    2.7040   -0.9340 n         1 MOL     -0.074458
    149 C50        -4.1570    2.7740   -2.3390 c3        1 MOL     -0.025572
    150 C51        -5.2530    3.1200   -3.3640 c         1 MOL      0.368018
    151 O21        -5.0960    3.9920   -4.2440 o         1 MOL     -0.529879
    152 C52        -3.5770    1.4020   -2.7240 c3        1 MOL     -0.240235
    153 C53        -2.2950    0.9090   -1.9410 c3        1 MOL     -0.011165
    154 C54        -2.5030    0.4550   -0.4880 c         1 MOL      0.701669
    155 O22        -1.5240    0.4670    0.2480 o         1 MOL     -0.715711
    156 O23        -3.6290    0.1600   -0.0950 o         1 MOL     -0.715711
    157 H67        -4.5370    1.7950   -0.5000 hn        1 MOL      0.283703
    158 H68        -3.4050    3.5480   -2.4450 h1        1 MOL      0.098540
    159 H69        -3.2590    1.3990   -3.7680 hc        1 MOL      0.077139
    160 H70        -4.3710    0.6560   -2.6830 hc        1 MOL      0.077139
    161 H71        -1.5410    1.7030   -1.8860 hc        1 MOL      0.013914
    162 H72        -1.7800    0.1270   -2.4950 hc        1 MOL      0.013914
    163 N14        -6.5030    2.6540   -3.1720 n         1 MOL     -0.084348
    164 C55        -7.6570    3.1230   -3.9470 c3        1 MOL     -0.156979
    165 H73        -8.3540    3.6390   -3.2860 h1        1 MOL      0.073134
    166 H74        -7.3190    3.8090   -4.7230 h1        1 MOL      0.073134
    167 H75        -8.1570    2.2710   -4.4070 h1        1 MOL      0.073134
    168 H76        -6.6690    2.0880   -2.3480 hn        1 MOL      0.081276
    169 Ca1         0.2100   -0.9440    1.6260 Ca        1 MOL      1.742753
    170 O24         2.0300   -0.1140   -0.0890 oh        1 MOL     -0.856719
    171 H77         2.1150    0.7130   -0.5680 ho        1 MOL      0.409620
    172 H78         2.9260   -0.3630    0.1170 ho        1 MOL      0.409620
    173 O25         0.2390   -3.8060    2.2300 oh        1 MOL     -0.856719
    174 H79         0.5060   -4.4900    1.6150 ho        1 MOL      0.409620
    175 H80        -0.4760   -4.2090    2.7300 ho        1 MOL      0.409620
    176 O26         0.6680    1.7680    1.5410 oh        1 MOL     -0.856719
    177 H81         1.2870    2.3650    1.9600 ho        1 MOL      0.409620
    178 H82         0.0500    2.3410    1.1010 ho        1 MOL      0.409620
@<TRIPOS>BOND
     1    1    2 1   
     2    1    4 1   
     3    1    5 1   
     4    1    6 1   
     5    2    3 2   
     6    2    7 1   
     7    7    8 1   
     8    7   15 1   
     9    8    9 1   
    10    8   11 1   
    11    8   16 1   
    12    9   10 2   
    13    9   19 1   
    14   11   12 1   
    15   11   17 1   
    16   11   18 1   
    17   12   13 1   
    18   12   14 1   
    19   19   20 1   
    20   19   24 1   
    21   20   21 1   
    22   20   23 1   
    23   20   25 1   
    24   21   22 2   
    25   21   29 1   
    26   23   26 1   
    27   23   27 1   
    28   23   28 1   
    29   29   30 1   
    30   29   37 1   
    31   30   31 1   
    32   30   33 1   
    33   30   38 1   
    34   31   32 2   
    35   31   41 1   
    36   33   34 1   
    37   33   39 1   
    38   33   40 1   
    39   34   35 1   
    40   34   36 1   
    41   41   42 1   
    42   41   45 1   
    43   42   43 1   
    44   42   46 1   
    45   42   47 1   
    46   43   44 2   
    47   43   48 1   
    48   48   49 1   
    49   48   56 1   
    50   49   50 1   
    51   49   52 1   
    52   49   57 1   
    53   50   51 2   
    54   50   62 1   
    55   52   53 1   
    56   52   58 1   
    57   52   59 1   
    58   53   54 1   
    59   53   55 2   
    60   54   60 1   
    61   54   61 1   
    62   62   63 1   
    63   62   66 1   
    64   63   64 1   
    65   63   67 1   
    66   63   68 1   
    67   64   65 2   
    68   64   69 1   
    69   69   70 1   
    70   69   76 1   
    71   70   71 1   
    72   70   73 1   
    73   70   77 1   
    74   71   72 2   
    75   71   83 1   
    76   73   74 1   
    77   73   75 1   
    78   73   78 1   
    79   74   80 1   
    80   74   81 1   
    81   74   82 1   
    82   75   79 1   
    83   83   84 1   
    84   83   91 1   
    85   84   85 1   
    86   84   87 1   
    87   84   92 1   
    88   85   86 2   
    89   85  102 1   
    90   87   88 1   
    91   87   89 1   
    92   87   93 1   
    93   88   90 1   
    94   88   94 1   
    95   88   95 1   
    96   89   96 1   
    97   89   97 1   
    98   89   98 1   
    99   90   99 1   
   100   90  100 1   
   101   90  101 1   
   102  102  103 1   
   103  102  110 1   
   104  103  104 1   
   105  103  106 1   
   106  103  111 1   
   107  104  105 2   
   108  104  114 1   
   109  106  107 1   
   110  106  112 1   
   111  106  113 1   
   112  107  108 1   
   113  107  109 1   
   114  114  115 1   
   115  114  125 1   
   116  115  116 1   
   117  115  118 1   
   118  115  126 1   
   119  116  117 2   
   120  116  134 1   
   121  118  119 1   
   122  118  127 1   
   123  118  128 1   
   124  119  120 ar  
   125  119  121 ar  
   126  120  122 ar  
   127  120  129 1   
   128  121  123 ar  
   129  121  130 1   
   130  122  124 ar  
   131  122  131 1   
   132  123  124 ar  
   133  123  132 1   
   134  124  133 1   
   135  134  135 1   
   136  134  140 1   
   137  135  136 1   
   138  135  138 1   
   139  135  141 1   
   140  136  137 2   
   141  136  148 1   
   142  138  139 1   
   143  138  142 1   
   144  138  143 1   
   145  139  140 1   
   146  139  144 1   
   147  139  145 1   
   148  140  146 1   
   149  140  147 1   
   150  148  149 1   
   151  148  157 1   
   152  149  150 1   
   153  149  152 1   
   154  149  158 1   
   155  150  151 2   
   156  150  163 1   
   157  152  153 1   
   158  152  159 1   
   159  152  160 1   
   160  153  154 1   
   161  153  161 1   
   162  153  162 1   
   163  154  155 1   
   164  154  156 1   
   165  163  164 1   
   166  163  168 1   
   167  164  165 1   
   168  164  166 1   
   169  164  167 1   
   170  170  171 1   
   171  170  172 1   
   172  173  174 1   
   173  173  175 1   
   174  176  177 1   
   175  176  178 1   
@<TRIPOS>SUBSTRUCTURE
     1 MOL         1 TEMP              0 ****  ****    0 ROOT
