@<TRIPOS>MOLECULE
MOL
  192   187     1     0     0
SMALL
resp


@<TRIPOS>ATOM
      1 C1         -6.9960   -3.4150    4.2730 c3        1 MOL     -0.157769
      2 C2         -6.1210   -2.7600    3.2160 c         1 MOL      0.745141
      3 O1         -5.8350   -3.4590    2.2820 o         1 MOL     -0.587892
      4 H1         -6.8810   -2.8850    5.2180 hc        1 MOL      0.034490
      5 H2         -8.0380   -3.3740    3.9580 hc        1 MOL      0.034490
      6 H3         -6.6950   -4.4540    4.4010 hc        1 MOL      0.034490
      7 N1         -5.8990   -1.4220    3.1460 n         1 MOL     -0.742292
      8 C3         -5.4350   -0.7030    1.9890 c3        1 MOL      0.967576
      9 C4         -3.8630   -0.8220    1.7510 c         1 MOL     -0.292987
     10 O2         -3.3690   -0.0540    0.8680 o         1 MOL     -0.098898
     11 C5         -5.7410    0.8380    2.1220 c3        1 MOL     -0.279603
     12 C6         -7.1450    1.2040    2.4920 c         1 MOL      0.728109
     13 O3         -7.8230    1.9570    1.7910 o         1 MOL     -0.704229
     14 O4         -7.6710    0.6840    3.4780 o         1 MOL     -0.704229
     15 H4         -6.3550   -0.8370    3.8220 hn        1 MOL      0.272943
     16 H5         -5.9690   -0.9450    1.0690 h1        1 MOL     -0.141475
     17 H6         -5.4550    1.3050    1.1800 hc        1 MOL     -0.024282
     18 H7         -5.0590    1.2290    2.8840 hc        1 MOL     -0.024282
     19 N2         -3.1200   -1.6360    2.5490 n         1 MOL     -0.221198
     20 C7         -1.6550   -1.6100    2.6420 c3        1 MOL      0.013203
     21 C8         -0.9700   -2.7700    1.8770 c         1 MOL      0.754127
     22 O5         -1.3860   -3.8820    2.0210 o         1 MOL     -0.556428
     23 C9         -1.2180   -1.3620    4.0400 c3        1 MOL     -0.262793
     24 C10        -1.9180   -0.0830    4.5220 c3        1 MOL      0.456223
     25 C11        -1.3160    0.4760    5.8410 c3        1 MOL     -0.226450
     26 C12        -1.8210   -0.2490    7.0830 c3        1 MOL      0.025150
     27 N3         -1.1520    0.3760    8.2610 n4        1 MOL     -0.171562
     28 H8         -3.6440   -2.3160    3.0730 hn        1 MOL      0.219823
     29 H9         -1.2740   -0.7090    2.1510 h1        1 MOL      0.151753
     30 H10        -0.1500   -1.3690    4.2470 hc        1 MOL      0.059436
     31 H11        -1.6610   -2.1590    4.6340 hc        1 MOL      0.059436
     32 H12        -2.9900   -0.2450    4.6620 hc        1 MOL     -0.093091
     33 H13        -1.8020    0.6950    3.7690 hc        1 MOL     -0.093091
     34 H14        -1.7210    1.4850    5.8220 hc        1 MOL      0.081831
     35 H15        -0.2470    0.3570    5.6650 hc        1 MOL      0.081831
     36 H16        -1.4530   -1.2770    7.0110 hx        1 MOL      0.072649
     37 H17        -2.8840   -0.1350    7.2470 hx        1 MOL      0.072649
     38 H18        -1.2610   -0.1420    9.1210 hn        1 MOL      0.258533
     39 H19        -0.1510    0.4530    8.1690 hn        1 MOL      0.258533
     40 H20        -1.5040    1.2860    8.5160 hn        1 MOL      0.258533
     41 N4          0.1420   -2.5890    1.1230 n         1 MOL     -0.626728
     42 C13         1.0710   -1.4560    0.7880 c3        1 MOL     -0.190100
     43 C14         1.6360   -0.7180    1.9630 c         1 MOL      0.839650
     44 O6          1.2370    0.3430    2.3480 o         1 MOL     -0.618630
     45 C15         0.5350   -0.5900   -0.4570 c3        1 MOL     -0.156816
     46 C16         0.2170   -1.3750   -1.7440 c         1 MOL      0.664783
     47 O7          1.0510   -2.3040   -2.0360 o         1 MOL     -0.714091
     48 O8         -0.6250   -0.9080   -2.5590 o         1 MOL     -0.714091
     49 H21         0.5170   -3.4630    0.7960 hn        1 MOL      0.237934
     50 H22         1.8900   -1.9940    0.3190 h1        1 MOL     -0.020149
     51 H23         1.2830    0.1040   -0.8220 hc        1 MOL      0.116625
     52 H24        -0.3350   -0.0400   -0.0900 hc        1 MOL      0.116625
     53 N5          2.6740   -1.2660    2.5840 n         1 MOL     -0.648323
     54 C17         3.5680   -2.3630    2.1160 c3        1 MOL      0.177206
     55 C18         4.6890   -2.6910    3.0860 c         1 MOL      0.518380
     56 O9          4.7690   -2.2390    4.2210 o         1 MOL     -0.534047
     57 H25         2.9740   -0.6600    3.3330 hn        1 MOL      0.309990
     58 H26         4.0490   -1.9860    1.2240 h1        1 MOL      0.102725
     59 H27         2.9060   -3.2210    2.0740 h1        1 MOL      0.102725
     60 N6          5.5460   -3.6240    2.6640 n         1 MOL     -0.555353
     61 C19         5.7850   -4.0940    1.2260 c3        1 MOL      0.104810
     62 C20         6.7250   -3.0600    0.4910 c         1 MOL      0.507054
     63 O10         7.7050   -2.6330    1.0690 o         1 MOL     -0.407453
     64 C21         6.4400   -5.5380    1.2380 c3        1 MOL     -0.185248
     65 C22         7.6890   -5.4410    2.1190 c         1 MOL      0.651485
     66 O11         8.8580   -5.2210    1.5980 o         1 MOL     -0.634225
     67 O12         7.5690   -5.5320    3.3540 o         1 MOL     -0.634225
     68 H28         6.2140   -3.9110    3.3570 hn        1 MOL      0.346401
     69 H29         4.8330   -4.1550    0.7010 h1        1 MOL     -0.045653
     70 H30         6.7030   -5.8750    0.2360 hc        1 MOL      0.035778
     71 H31         5.7640   -6.2030    1.7870 hc        1 MOL      0.035778
     72 N7          6.4990   -2.6790   -0.7980 n         1 MOL     -0.387386
     73 C23         7.4590   -1.9220   -1.6040 c3        1 MOL     -0.077825
     74 C24         7.1490   -0.4410   -1.8950 c         1 MOL      0.551459
     75 O13         8.0330    0.4290   -1.9350 o         1 MOL     -0.535937
     76 H32         5.6380   -2.9560   -1.2480 hn        1 MOL      0.211779
     77 H33         7.6020   -2.3530   -2.5920 h1        1 MOL      0.094864
     78 H34         8.3750   -1.9840   -1.0160 h1        1 MOL      0.094864
     79 N8          5.8470   -0.1020   -2.1000 n         1 MOL     -0.408540
     80 C25         5.2190    1.1730   -2.1090 c3        1 MOL     -0.195824
     81 C26         5.1290    1.7610   -0.7250 c         1 MOL      0.555615
     82 O14         4.5280    1.1440    0.1360 o         1 MOL     -0.547826
     83 C27         3.7070    1.2180   -2.6940 c3        1 MOL      0.570256
     84 C28         3.6580    0.7330   -4.1100 c3        1 MOL     -0.409727
     85 O15         3.0500    2.4300   -2.6880 oh        1 MOL     -0.685769
     86 H35         5.2470   -0.9190   -2.1330 hn        1 MOL      0.216176
     87 H36         5.7960    1.8810   -2.7050 h1        1 MOL      0.125835
     88 H37         3.0920    0.4980   -2.1680 h1        1 MOL      0.008998
     89 H38         2.3190    2.3970   -3.3200 ho        1 MOL      0.447718
     90 H39         2.6260    0.7110   -4.4460 hc        1 MOL      0.086540
     91 H40         4.3600    1.1230   -4.8530 hc        1 MOL      0.086540
     92 H41         3.8710   -0.3360   -4.0320 hc        1 MOL      0.086540
     93 N9          5.5650    2.9950   -0.6380 n         1 MOL     -0.156451
     94 C29         5.5460    3.9380    0.5310 c3        1 MOL     -0.258049
     95 C30         4.1600    4.5540    0.8500 c         1 MOL      0.482829
     96 O16         3.9630    5.3790    1.7430 o         1 MOL     -0.547149
     97 C31         6.6190    5.0190    0.4900 c3        1 MOL      0.210575
     98 C32         6.2670    5.8780   -0.7620 c3        1 MOL      0.050517
     99 C33         8.0290    4.5440    0.4280 c3        1 MOL     -0.179110
    100 C34         7.0940    7.2280   -0.8380 c3        1 MOL     -0.243486
    101 H42         5.8190    3.3010   -1.5670 hn        1 MOL      0.156756
    102 H43         5.7640    3.2560    1.3480 h1        1 MOL      0.155349
    103 H44         6.5660    5.5450    1.4440 hc        1 MOL      0.015880
    104 H45         5.2280    6.1300   -0.9890 hc        1 MOL      0.021817
    105 H46         6.6040    5.3410   -1.6530 hc        1 MOL      0.021817
    106 H47         8.6920    5.4030    0.3370 hc        1 MOL      0.041146
    107 H48         8.2900    3.9570    1.3060 hc        1 MOL      0.041146
    108 H49         8.1150    3.8610   -0.4180 hc        1 MOL      0.041146
    109 H50         6.5720    7.9030   -1.5200 hc        1 MOL      0.055320
    110 H51         7.1740    7.8230    0.0690 hc        1 MOL      0.055320
    111 H52         8.0680    7.0270   -1.2780 hc        1 MOL      0.055320
    112 N10         3.1140    4.2190    0.0700 n         1 MOL     -0.206358
    113 C35         1.8030    4.8500    0.1580 c3        1 MOL     -0.036897
    114 C36         0.7160    3.7370    0.0900 c         1 MOL      0.542187
    115 O17         0.9340    2.7480   -0.5560 o         1 MOL     -0.489743
    116 C37         1.4900    5.8960   -1.0180 c3        1 MOL      0.319629
    117 C38         1.8540    5.4200   -2.4390 c3        1 MOL     -0.115278
    118 O18         2.3000    7.0080   -0.7720 oh        1 MOL     -0.616376
    119 H53         3.1510    3.6860   -0.7870 hn        1 MOL      0.111947
    120 H54         1.6680    5.3720    1.1020 h1        1 MOL      0.066983
    121 H55         0.4400    6.1600   -0.9470 h1        1 MOL     -0.026438
    122 H56         1.9010    7.5990   -0.1320 ho        1 MOL      0.387621
    123 H57         2.8670    5.0250   -2.5780 hc        1 MOL      0.036676
    124 H58         1.1610    4.6260   -2.7130 hc        1 MOL      0.036676
    125 H59         1.7210    6.1550   -3.2250 hc        1 MOL      0.036676
    126 N11        -0.4230    3.9880    0.7190 n         1 MOL     -0.480345
    127 C39        -1.6710    3.1500    0.6340 c3        1 MOL      0.279317
    128 C40        -2.2470    3.0680   -0.7650 c         1 MOL      0.381692
    129 O19        -1.8910    3.8750   -1.6330 o         1 MOL     -0.537308
    130 C41        -2.8010    3.7260    1.4750 c3        1 MOL      0.117727
    131 C42        -3.0350    5.1990    1.2200 c3        1 MOL     -0.326659
    132 O20        -2.3880    3.5790    2.8690 oh        1 MOL     -0.606890
    133 H60        -0.4780    4.8230    1.2870 hn        1 MOL      0.272048
    134 H61        -1.5060    2.1040    0.8810 h1        1 MOL      0.027238
    135 H62        -3.6620    3.0670    1.3500 h1        1 MOL      0.115183
    136 H63        -3.1560    3.8960    3.3320 ho        1 MOL      0.393576
    137 H64        -3.7920    5.6580    1.8680 hc        1 MOL      0.087660
    138 H65        -2.0850    5.6730    1.4150 hc        1 MOL      0.087660
    139 H66        -3.3700    5.2680    0.1860 hc        1 MOL      0.087660
    140 N12        -3.1770    2.1410   -1.0020 n         1 MOL     -0.048860
    141 C43        -3.6810    1.8740   -2.3800 c3        1 MOL     -0.166408
    142 C44        -4.1130    0.4170   -2.6840 c         1 MOL      0.684561
    143 O21        -4.3300    0.0530   -3.8270 o         1 MOL     -0.668899
    144 C45        -4.8790    2.7780   -2.5950 c3        1 MOL     -0.163559
    145 C46        -6.1290    2.4440   -1.8180 c3        1 MOL     -0.228039
    146 C47        -7.4260    3.2880   -2.2000 c3        1 MOL     -0.003521
    147 C48        -7.3300    4.8480   -1.8810 c3        1 MOL      0.069184
    148 N13        -8.5160    5.5750   -2.3370 n4        1 MOL     -0.369320
    149 H67        -3.5090    1.4340   -0.3740 hn        1 MOL     -0.092270
    150 H68        -2.9950    2.2630   -3.1380 h1        1 MOL      0.143080
    151 H69        -5.1920    2.9070   -3.6290 hc        1 MOL      0.064335
    152 H70        -4.6460    3.8270   -2.4090 hc        1 MOL      0.064335
    153 H71        -5.9840    2.5870   -0.7520 hc        1 MOL      0.112857
    154 H72        -6.4970    1.4530   -2.0720 hc        1 MOL      0.112857
    155 H73        -8.3310    2.9110   -1.7180 hc        1 MOL      0.044117
    156 H74        -7.6570    3.1410   -3.2520 hc        1 MOL      0.044117
    157 H75        -6.4810    5.3240   -2.3720 hx        1 MOL      0.078829
    158 H76        -7.2940    4.9500   -0.7950 hx        1 MOL      0.078829
    159 H77        -8.3360    6.5310   -2.5830 hn        1 MOL      0.319378
    160 H78        -8.8950    5.1670   -3.1740 hn        1 MOL      0.319378
    161 H79        -9.2390    5.6210   -1.6360 hn        1 MOL      0.319378
    162 N14        -4.0510   -0.5380   -1.7990 n         1 MOL     -0.021510
    163 C49        -4.4570   -1.9650   -1.9550 c3        1 MOL     -0.237416
    164 C50        -5.9960   -2.3080   -1.8840 c         1 MOL      0.244382
    165 O22        -6.5730   -2.0890   -0.8270 o         1 MOL     -0.401108
    166 C51        -3.6630   -2.9200   -1.0480 c3        1 MOL      0.581450
    167 C52        -3.7030   -4.3950   -1.5290 c3        1 MOL     -1.011182
    168 C53        -3.1040   -4.6910   -2.8410 c         1 MOL      0.906060
    169 O23        -3.8410   -4.9200   -3.7810 o         1 MOL     -0.749229
    170 O24        -1.8890   -4.8450   -2.9710 o         1 MOL     -0.749229
    171 H80        -3.6820   -0.3190   -0.8840 hn        1 MOL      0.051411
    172 H81        -4.0990   -2.1470   -2.9740 h1        1 MOL      0.191038
    173 H82        -3.9960   -2.9550   -0.0140 hc        1 MOL     -0.101288
    174 H83        -2.6140   -2.6250   -0.9970 hc        1 MOL     -0.101288
    175 H84        -4.7270   -4.7390   -1.4460 hc        1 MOL      0.268963
    176 H85        -3.2090   -5.0360   -0.7990 hc        1 MOL      0.268963
    177 N15        -6.5870   -2.9240   -2.8650 n         1 MOL     -0.169529
    178 C54        -8.0670   -3.2040   -2.8870 c3        1 MOL     -0.186624
    179 H86        -8.2780   -3.9800   -3.6220 h1        1 MOL      0.095616
    180 H87        -8.3870   -3.5410   -1.9010 h1        1 MOL      0.095616
    181 H88        -8.6060   -2.2950   -3.1540 h1        1 MOL      0.095616
    182 H89        -6.1000   -3.0300   -3.7440 hn        1 MOL      0.288219
    183 Ca1         0.5040   -4.5050   -3.0350 Ca        1 MOL      1.678851
    184 O25         2.4630   -3.7150   -4.9460 oh        1 MOL     -0.891100
    185 H90         2.8890   -3.0860   -5.5400 ho        1 MOL      0.437506
    186 H91         2.6190   -4.5680   -5.3540 ho        1 MOL      0.437506
    187 O26        -0.2560   -2.3300   -4.9010 oh        1 MOL     -0.891100
    188 H92        -0.4550   -1.6100   -4.3040 ho        1 MOL      0.437506
    189 H93         0.2770   -1.9320   -5.5880 ho        1 MOL      0.437506
    190 O27         0.1350   -5.6780   -5.4390 oh        1 MOL     -0.891100
    191 H94        -0.4560   -6.4200   -5.6340 ho        1 MOL      0.437506
    192 H95         0.0170   -5.0880   -6.1900 ho        1 MOL      0.437506
@<TRIPOS>BOND
     1    1    2 1   
     2    1    4 1   
     3    1    5 1   
     4    1    6 1   
     5    2    3 2   
     6    2    7 1   
     7    7    8 1   
     8    7   15 1   
     9    8    9 1   
    10    8   11 1   
    11    8   16 1   
    12    9   10 2   
    13    9   19 1   
    14   11   12 1   
    15   11   17 1   
    16   11   18 1   
    17   12   13 1   
    18   12   14 1   
    19   19   20 1   
    20   19   28 1   
    21   20   21 1   
    22   20   23 1   
    23   20   29 1   
    24   21   22 2   
    25   21   41 1   
    26   23   24 1   
    27   23   30 1   
    28   23   31 1   
    29   24   25 1   
    30   24   32 1   
    31   24   33 1   
    32   25   26 1   
    33   25   34 1   
    34   25   35 1   
    35   26   27 1   
    36   26   36 1   
    37   26   37 1   
    38   27   38 1   
    39   27   39 1   
    40   27   40 1   
    41   41   42 1   
    42   41   49 1   
    43   42   43 1   
    44   42   45 1   
    45   42   50 1   
    46   43   44 2   
    47   43   53 1   
    48   45   46 1   
    49   45   51 1   
    50   45   52 1   
    51   46   47 1   
    52   46   48 1   
    53   53   54 1   
    54   53   57 1   
    55   54   55 1   
    56   54   58 1   
    57   54   59 1   
    58   55   56 2   
    59   55   60 1   
    60   60   61 1   
    61   60   68 1   
    62   61   62 1   
    63   61   64 1   
    64   61   69 1   
    65   62   63 2   
    66   62   72 1   
    67   64   65 1   
    68   64   70 1   
    69   64   71 1   
    70   65   66 1   
    71   65   67 1   
    72   72   73 1   
    73   72   76 1   
    74   73   74 1   
    75   73   77 1   
    76   73   78 1   
    77   74   75 2   
    78   74   79 1   
    79   79   80 1   
    80   79   86 1   
    81   80   81 1   
    82   80   83 1   
    83   80   87 1   
    84   81   82 2   
    85   81   93 1   
    86   83   84 1   
    87   83   85 1   
    88   83   88 1   
    89   84   90 1   
    90   84   91 1   
    91   84   92 1   
    92   85   89 1   
    93   93   94 1   
    94   93  101 1   
    95   94   95 1   
    96   94   97 1   
    97   94  102 1   
    98   95   96 2   
    99   95  112 1   
   100   97   98 1   
   101   97   99 1   
   102   97  103 1   
   103   98  100 1   
   104   98  104 1   
   105   98  105 1   
   106   99  106 1   
   107   99  107 1   
   108   99  108 1   
   109  100  109 1   
   110  100  110 1   
   111  100  111 1   
   112  112  113 1   
   113  112  119 1   
   114  113  114 1   
   115  113  116 1   
   116  113  120 1   
   117  114  115 2   
   118  114  126 1   
   119  116  117 1   
   120  116  118 1   
   121  116  121 1   
   122  117  123 1   
   123  117  124 1   
   124  117  125 1   
   125  118  122 1   
   126  126  127 1   
   127  126  133 1   
   128  127  128 1   
   129  127  130 1   
   130  127  134 1   
   131  128  129 2   
   132  128  140 1   
   133  130  131 1   
   134  130  132 1   
   135  130  135 1   
   136  131  137 1   
   137  131  138 1   
   138  131  139 1   
   139  132  136 1   
   140  140  141 1   
   141  140  149 1   
   142  141  142 1   
   143  141  144 1   
   144  141  150 1   
   145  142  143 2   
   146  142  162 1   
   147  144  145 1   
   148  144  151 1   
   149  144  152 1   
   150  145  146 1   
   151  145  153 1   
   152  145  154 1   
   153  146  147 1   
   154  146  155 1   
   155  146  156 1   
   156  147  148 1   
   157  147  157 1   
   158  147  158 1   
   159  148  159 1   
   160  148  160 1   
   161  148  161 1   
   162  162  163 1   
   163  162  171 1   
   164  163  164 1   
   165  163  166 1   
   166  163  172 1   
   167  164  165 2   
   168  164  177 1   
   169  166  167 1   
   170  166  173 1   
   171  166  174 1   
   172  167  168 1   
   173  167  175 1   
   174  167  176 1   
   175  168  169 1   
   176  168  170 1   
   177  177  178 1   
   178  177  182 1   
   179  178  179 1   
   180  178  180 1   
   181  178  181 1   
   182  184  185 1   
   183  184  186 1   
   184  187  188 1   
   185  187  189 1   
   186  190  191 1   
   187  190  192 1   
@<TRIPOS>SUBSTRUCTURE
     1 MOL         1 TEMP              0 ****  ****    0 ROOT
