@<TRIPOS>MOLECULE
MOL
  181   177     1     0     0
SMALL
resp


@<TRIPOS>ATOM
      1 C1          6.4070    6.7920   -3.6510 c3        1 MOL     -0.305326
      2 C2          5.9330    5.3600   -3.3130 c         1 MOL      0.740872
      3 O1          5.0490    4.8240   -3.9490 o         1 MOL     -0.575640
      4 H1          5.9690    7.4960   -2.9430 hc        1 MOL      0.072850
      5 H2          7.4940    6.8410   -3.5850 hc        1 MOL      0.072850
      6 H3          6.0910    7.0510   -4.6610 hc        1 MOL      0.072850
      7 N1          6.5510    4.5700   -2.4010 n         1 MOL     -0.706862
      8 C3          7.7270    5.0470   -1.5280 c3        1 MOL      0.264847
      9 C4          7.4730    4.7970   -0.0520 c         1 MOL      0.486488
     10 O2          6.3260    4.3520    0.3180 o         1 MOL     -0.461224
     11 C5          8.9840    4.3990   -2.0290 c3        1 MOL     -0.280873
     12 C6          9.1140    2.9520   -1.7520 c         1 MOL      0.748175
     13 O3          9.6770    2.4500   -0.7340 o         1 MOL     -0.729947
     14 O4          8.7410    2.0890   -2.5580 o         1 MOL     -0.729947
     15 H4          6.1030    3.6720   -2.2700 hn        1 MOL      0.394322
     16 H5          7.9560    6.1140   -1.6060 h1        1 MOL      0.027066
     17 H6          9.8280    4.9090   -1.5650 hc        1 MOL      0.054480
     18 H7          8.9910    4.6910   -3.0820 hc        1 MOL      0.054480
     19 N2          8.4210    5.0170    0.8360 n         1 MOL     -0.664176
     20 C7          8.1870    4.8630    2.3370 c3        1 MOL      0.404976
     21 C8          7.6660    3.4820    2.8420 c         1 MOL      0.446211
     22 O5          7.2830    3.3790    3.9820 o         1 MOL     -0.554438
     23 C9          7.4280    6.1010    2.9400 c3        1 MOL     -0.536395
     24 H8          9.2620    5.5340    0.6260 hn        1 MOL      0.337275
     25 H9          9.1870    4.9070    2.7620 h1        1 MOL      0.002078
     26 H10         6.3620    5.8620    2.8320 hc        1 MOL      0.145676
     27 H11         7.8280    6.2680    3.9350 hc        1 MOL      0.145676
     28 H12         7.5550    6.9800    2.3110 hc        1 MOL      0.145676
     29 N3          7.7490    2.4270    2.0340 n         1 MOL     -0.460030
     30 C10         7.2430    1.0870    2.4140 c3        1 MOL      0.662803
     31 C11         8.3210    0.0820    2.1690 c         1 MOL      0.200098
     32 O6          9.3130    0.2730    1.4490 o         1 MOL     -0.449085
     33 C12         5.8410    0.8030    1.8760 c3        1 MOL     -0.468850
     34 C13         5.8180    0.7940    0.3090 c         1 MOL      0.883975
     35 O7          4.7570    0.9810   -0.2760 o         1 MOL     -0.706604
     36 O8          6.8730    0.6890   -0.2530 o         1 MOL     -0.706604
     37 H13         8.0870    2.5570    1.0880 hn        1 MOL      0.138165
     38 H14         7.2030    1.0650    3.5040 h1        1 MOL     -0.078084
     39 H15         5.0990    1.5540    2.1690 hc        1 MOL      0.098150
     40 H16         5.5000   -0.1840    2.1890 hc        1 MOL      0.098150
     41 N4          8.0110   -1.1340    2.7110 n         1 MOL     -0.256486
     42 C14         8.5980   -2.4030    2.2740 c3        1 MOL     -0.329232
     43 C15         7.8770   -2.8380    1.0440 c         1 MOL      0.614217
     44 O9          7.7190   -2.0350    0.1040 o         1 MOL     -0.651392
     45 H17         7.2220   -1.1070    3.3340 hn        1 MOL      0.248025
     46 H18         8.6040   -3.2360    2.9810 h1        1 MOL      0.146435
     47 H19         9.6300   -2.0770    2.1080 h1        1 MOL      0.146435
     48 N5          7.7390   -4.1500    0.8810 n         1 MOL     -0.397346
     49 C16         6.7570   -4.7080   -0.0270 c3        1 MOL      0.196528
     50 C17         5.3460   -4.2060    0.4070 c         1 MOL      0.714708
     51 O10         4.8770   -4.5860    1.4440 o         1 MOL     -0.496144
     52 C18         6.8510   -6.2310    0.0480 c3        1 MOL     -0.401263
     53 C19         6.6010   -6.8420    1.4690 c         1 MOL      0.614114
     54 N6          7.5080   -6.6600    2.4280 n         1 MOL     -0.777064
     55 O11         5.5950   -7.5050    1.7910 o         1 MOL     -0.481410
     56 H20         8.1450   -4.7030    1.6160 hn        1 MOL      0.156784
     57 H21         6.9180   -4.3990   -1.0620 h1        1 MOL      0.035079
     58 H22         7.8570   -6.4940   -0.2700 hc        1 MOL      0.118361
     59 H23         6.1380   -6.6670   -0.6520 hc        1 MOL      0.118361
     60 H24         8.4290   -6.3670    2.1660 hn        1 MOL      0.366640
     61 H25         7.3460   -6.9830    3.3700 hn        1 MOL      0.366640
     62 N7          4.6480   -3.4270   -0.4480 n         1 MOL     -0.880148
     63 C20         3.2710   -2.9350   -0.0860 c3        1 MOL      0.426995
     64 C21         2.1770   -3.7370   -0.7610 c         1 MOL      0.466508
     65 O12         2.3940   -4.8400   -1.1910 o         1 MOL     -0.522973
     66 H26         5.0830   -3.1250   -1.3010 hn        1 MOL      0.441146
     67 H27         3.1660   -1.8980   -0.3870 h1        1 MOL     -0.013418
     68 H28         3.1070   -2.8590    0.9900 h1        1 MOL     -0.013418
     69 N8          0.9140   -3.2370   -0.8490 n         1 MOL     -0.537125
     70 C22         0.4390   -1.9160   -0.4950 c3        1 MOL      0.031855
     71 C23        -1.0810   -2.0280   -0.2650 c         1 MOL      0.582667
     72 O13        -1.7460   -2.9360   -0.8000 o         1 MOL     -0.550360
     73 C24         0.6980   -0.9390   -1.7260 c3        1 MOL      0.189038
     74 C25         0.7030    0.5250   -1.3740 c3        1 MOL     -0.117711
     75 O14         1.9970   -1.2000   -2.3460 oh        1 MOL     -0.551386
     76 H29         0.2780   -3.7940   -1.3990 hn        1 MOL      0.332530
     77 H30         0.9120   -1.4310    0.3480 h1        1 MOL      0.067114
     78 H31        -0.0330   -1.1090   -2.5070 h1        1 MOL      0.040128
     79 H32         1.8510   -1.0260   -3.2800 ho        1 MOL      0.374154
     80 H33         0.8850    1.1940   -2.2160 hc        1 MOL      0.041545
     81 H34        -0.3240    0.7120   -1.0750 hc        1 MOL      0.041545
     82 H35         1.3820    0.8350   -0.5830 hc        1 MOL      0.041545
     83 N9         -1.6520   -1.1030    0.4810 n         1 MOL     -0.551445
     84 C26        -3.1490   -1.0660    0.6730 c3        1 MOL      0.007911
     85 C27        -3.5820    0.2950    0.0950 c         1 MOL      0.573955
     86 O15        -3.0060    1.3370    0.4020 o         1 MOL     -0.590657
     87 C28        -3.4750   -1.3300    2.1600 c3        1 MOL      0.034477
     88 C29        -2.9430   -2.7450    2.6420 c3        1 MOL      0.091989
     89 C30        -4.9610   -1.4070    2.3130 c3        1 MOL     -0.291782
     90 C31        -3.2690   -2.9430    4.1310 c3        1 MOL     -0.296006
     91 H36        -1.1350   -0.2870    0.7600 hn        1 MOL      0.288944
     92 H37        -3.5820   -1.8670    0.0780 h1        1 MOL      0.155475
     93 H38        -2.9960   -0.6130    2.8250 hc        1 MOL      0.043324
     94 H39        -1.8520   -2.8320    2.5480 hc        1 MOL      0.003471
     95 H40        -3.3230   -3.5630    2.0240 hc        1 MOL      0.003471
     96 H41        -5.4590   -0.5840    1.7900 hc        1 MOL      0.105649
     97 H42        -5.2670   -2.3490    1.8670 hc        1 MOL      0.105649
     98 H43        -5.1730   -1.3190    3.3760 hc        1 MOL      0.105649
     99 H44        -4.3450   -2.9720    4.3500 hc        1 MOL      0.065767
    100 H45        -2.8890   -3.9150    4.4570 hc        1 MOL      0.065767
    101 H46        -2.8090   -2.0980    4.6350 hc        1 MOL      0.065767
    102 N10        -4.6120    0.3780   -0.7620 n         1 MOL     -0.449815
    103 C32        -5.4200   -0.7190   -1.3240 c3        1 MOL      0.152706
    104 C33        -6.8270   -0.0750   -1.5570 c         1 MOL      0.580262
    105 O16        -6.9600    1.1660   -1.5570 o         1 MOL     -0.563311
    106 C34        -4.7350   -1.3390   -2.5890 c3        1 MOL     -0.315999
    107 C35        -5.4920   -2.6080   -3.0760 c         1 MOL      0.747766
    108 O17        -6.3570   -3.1300   -2.3450 o         1 MOL     -0.700003
    109 O18        -5.3580   -2.9250   -4.2430 o         1 MOL     -0.700003
    110 H47        -4.8030    1.3080   -1.0850 hn        1 MOL      0.278671
    111 H48        -5.5650   -1.5150   -0.5980 h1        1 MOL     -0.012668
    112 H49        -3.6640   -1.5110   -2.4790 hc        1 MOL      0.053549
    113 H50        -4.9030   -0.5390   -3.3120 hc        1 MOL      0.053549
    114 N11        -7.8400   -0.9490   -1.6240 n         1 MOL     -0.431440
    115 C36        -9.2610   -0.5770   -1.6490 c3        1 MOL      0.056952
    116 C37        -9.9880   -1.5990   -0.6820 c         1 MOL      0.327843
    117 O19        -9.9720   -2.8500   -0.9360 o         1 MOL     -0.494257
    118 C38        -9.8440   -0.5990   -3.1140 c3        1 MOL     -0.154285
    119 C39       -11.3050   -0.0810   -3.2310 ca        1 MOL     -0.068718
    120 C40       -12.3380   -1.0560   -3.0510 ca        1 MOL     -0.033535
    121 C41       -11.6950    1.2460   -3.4590 ca        1 MOL     -0.033535
    122 C42       -13.6680   -0.7750   -3.2800 ca        1 MOL     -0.206754
    123 C43       -13.0410    1.5750   -3.6920 ca        1 MOL     -0.206754
    124 C44       -14.0530    0.5800   -3.5440 ca        1 MOL     -0.063751
    125 H51        -7.6060   -1.9300   -1.7310 hn        1 MOL      0.332582
    126 H52        -9.3170    0.4590   -1.3200 h1        1 MOL      0.084899
    127 H53        -9.6580   -1.6140   -3.4650 hc        1 MOL      0.098552
    128 H54        -9.2450    0.0610   -3.7320 hc        1 MOL      0.098552
    129 H55       -12.1670   -2.0820   -2.7540 ha        1 MOL      0.101466
    130 H56       -10.9750    2.0180   -3.6810 ha        1 MOL      0.101466
    131 H57       -14.3230   -1.6020   -3.0770 ha        1 MOL      0.119547
    132 H58       -13.3820    2.5620   -3.9740 ha        1 MOL      0.119547
    133 H59       -15.0490    0.9490   -3.7140 ha        1 MOL      0.077609
    134 N12       -10.6340   -1.1240    0.4230 n         1 MOL     -0.112313
    135 C45       -10.5630    0.1860    1.0930 c3        1 MOL      0.473458
    136 C46        -9.1340    0.6470    1.4200 c         1 MOL      0.197782
    137 O20        -8.2030   -0.1070    1.4320 o         1 MOL     -0.450355
    138 C47       -11.2270    0.0310    2.4100 c3        1 MOL     -0.165491
    139 C48       -12.2660   -1.1040    2.1230 c3        1 MOL     -0.225269
    140 C49       -11.4950   -1.9930    1.1920 c3        1 MOL      0.020543
    141 H60       -11.1030    0.8770    0.4530 h1        1 MOL     -0.128148
    142 H61       -10.5130   -0.2640    3.1810 hc        1 MOL      0.094007
    143 H62       -11.7610    0.9100    2.7610 hc        1 MOL      0.094007
    144 H63       -12.4490   -1.5840    3.0890 hc        1 MOL      0.062227
    145 H64       -13.1120   -0.6310    1.6270 hc        1 MOL      0.062227
    146 H65       -10.8540   -2.6810    1.7350 h1        1 MOL      0.052718
    147 H66       -12.2150   -2.5050    0.5560 h1        1 MOL      0.052718
    148 N13        -9.0140    1.9410    1.8010 n         1 MOL     -0.196889
    149 C50        -7.7370    2.6920    1.6990 c3        1 MOL      0.094337
    150 C51        -7.9740    4.2200    1.5480 c         1 MOL      0.516693
    151 O21        -7.5530    5.0380    2.3670 o         1 MOL     -0.531118
    152 C52        -6.7720    2.3320    2.9150 c3        1 MOL     -0.099974
    153 C53        -7.1800    2.6990    4.2650 c3        1 MOL      0.061854
    154 C54        -8.5470    2.1440    4.6650 c         1 MOL      0.595729
    155 O22        -9.4750    2.9390    4.5950 o         1 MOL     -0.669569
    156 O23        -8.6130    0.9290    5.0360 o         1 MOL     -0.669569
    157 H67        -9.8340    2.4830    2.0120 hn        1 MOL      0.177746
    158 H68        -7.1730    2.3210    0.8450 h1        1 MOL      0.043855
    159 H69        -5.7610    2.7120    2.7820 hc        1 MOL      0.025833
    160 H70        -6.6130    1.2490    2.9190 hc        1 MOL      0.025833
    161 H71        -7.0830    3.7890    4.3250 hc        1 MOL     -0.035927
    162 H72        -6.4840    2.2870    5.0030 hc        1 MOL     -0.035927
    163 N14        -8.8270    4.6740    0.6150 n         1 MOL     -0.431208
    164 C55        -8.9690    4.1780   -0.7720 c3        1 MOL     -0.001208
    165 H73        -9.1250    3.1000   -0.7580 h1        1 MOL      0.034537
    166 H74        -9.8230    4.6620   -1.2460 h1        1 MOL      0.034537
    167 H75        -8.0630    4.4070   -1.3340 h1        1 MOL      0.034537
    168 H76        -9.0610    5.6430    0.7300 hn        1 MOL      0.271384
    169 Ca1         9.1150   -0.0860   -1.2180 Ca        1 MOL      1.771446
    170 O24        10.6560   -0.5850   -3.2660 oh        1 MOL     -0.783036
    171 H77        11.3500   -1.2250   -3.0830 ho        1 MOL      0.365339
    172 H78        11.0640    0.0480   -3.8670 ho        1 MOL      0.365339
    173 O25        11.6020    0.1910   -0.4710 oh        1 MOL     -0.783036
    174 H79        12.4150    0.4480   -0.9160 ho        1 MOL      0.365339
    175 H80        11.8920   -0.2970    0.2920 ho        1 MOL      0.365339
    176 O26        10.5230   -2.5420   -1.0480 oh        1 MOL     -0.783036
    177 H81        11.4000   -2.4830   -1.4200 ho        1 MOL      0.365339
    178 H82        10.1980   -3.4000   -1.3100 ho        1 MOL      0.365339
    179 O27         7.3040   -1.1220   -2.9790 oh        1 MOL     -0.783036
    180 H83         7.3170   -1.6900   -3.7480 ho        1 MOL      0.365339
    181 H84         6.3960   -0.8080   -2.9280 ho        1 MOL      0.365339
@<TRIPOS>BOND
     1    1    2 1   
     2    1    4 1   
     3    1    5 1   
     4    1    6 1   
     5    2    3 2   
     6    2    7 1   
     7    7    8 1   
     8    7   15 1   
     9    8    9 1   
    10    8   11 1   
    11    8   16 1   
    12    9   10 2   
    13    9   19 1   
    14   11   12 1   
    15   11   17 1   
    16   11   18 1   
    17   12   13 1   
    18   12   14 1   
    19   19   20 1   
    20   19   24 1   
    21   20   21 1   
    22   20   23 1   
    23   20   25 1   
    24   21   22 2   
    25   21   29 1   
    26   23   26 1   
    27   23   27 1   
    28   23   28 1   
    29   29   30 1   
    30   29   37 1   
    31   30   31 1   
    32   30   33 1   
    33   30   38 1   
    34   31   32 2   
    35   31   41 1   
    36   33   34 1   
    37   33   39 1   
    38   33   40 1   
    39   34   35 1   
    40   34   36 1   
    41   41   42 1   
    42   41   45 1   
    43   42   43 1   
    44   42   46 1   
    45   42   47 1   
    46   43   44 2   
    47   43   48 1   
    48   48   49 1   
    49   48   56 1   
    50   49   50 1   
    51   49   52 1   
    52   49   57 1   
    53   50   51 2   
    54   50   62 1   
    55   52   53 1   
    56   52   58 1   
    57   52   59 1   
    58   53   54 1   
    59   53   55 2   
    60   54   60 1   
    61   54   61 1   
    62   62   63 1   
    63   62   66 1   
    64   63   64 1   
    65   63   67 1   
    66   63   68 1   
    67   64   65 2   
    68   64   69 1   
    69   69   70 1   
    70   69   76 1   
    71   70   71 1   
    72   70   73 1   
    73   70   77 1   
    74   71   72 2   
    75   71   83 1   
    76   73   74 1   
    77   73   75 1   
    78   73   78 1   
    79   74   80 1   
    80   74   81 1   
    81   74   82 1   
    82   75   79 1   
    83   83   84 1   
    84   83   91 1   
    85   84   85 1   
    86   84   87 1   
    87   84   92 1   
    88   85   86 2   
    89   85  102 1   
    90   87   88 1   
    91   87   89 1   
    92   87   93 1   
    93   88   90 1   
    94   88   94 1   
    95   88   95 1   
    96   89   96 1   
    97   89   97 1   
    98   89   98 1   
    99   90   99 1   
   100   90  100 1   
   101   90  101 1   
   102  102  103 1   
   103  102  110 1   
   104  103  104 1   
   105  103  106 1   
   106  103  111 1   
   107  104  105 2   
   108  104  114 1   
   109  106  107 1   
   110  106  112 1   
   111  106  113 1   
   112  107  108 1   
   113  107  109 1   
   114  114  115 1   
   115  114  125 1   
   116  115  116 1   
   117  115  118 1   
   118  115  126 1   
   119  116  117 2   
   120  116  134 1   
   121  118  119 1   
   122  118  127 1   
   123  118  128 1   
   124  119  120 ar  
   125  119  121 ar  
   126  120  122 ar  
   127  120  129 1   
   128  121  123 ar  
   129  121  130 1   
   130  122  124 ar  
   131  122  131 1   
   132  123  124 ar  
   133  123  132 1   
   134  124  133 1   
   135  134  135 1   
   136  134  140 1   
   137  135  136 1   
   138  135  138 1   
   139  135  141 1   
   140  136  137 2   
   141  136  148 1   
   142  138  139 1   
   143  138  142 1   
   144  138  143 1   
   145  139  140 1   
   146  139  144 1   
   147  139  145 1   
   148  140  146 1   
   149  140  147 1   
   150  148  149 1   
   151  148  157 1   
   152  149  150 1   
   153  149  152 1   
   154  149  158 1   
   155  150  151 2   
   156  150  163 1   
   157  152  153 1   
   158  152  159 1   
   159  152  160 1   
   160  153  154 1   
   161  153  161 1   
   162  153  162 1   
   163  154  155 1   
   164  154  156 1   
   165  163  164 1   
   166  163  168 1   
   167  164  165 1   
   168  164  166 1   
   169  164  167 1   
   170  170  171 1   
   171  170  172 1   
   172  173  174 1   
   173  173  175 1   
   174  176  177 1   
   175  176  178 1   
   176  179  180 1   
   177  179  181 1   
@<TRIPOS>SUBSTRUCTURE
     1 MOL         1 TEMP              0 ****  ****    0 ROOT
