@<TRIPOS>MOLECULE
MOL
  178   175     1     0     0
SMALL
resp


@<TRIPOS>ATOM
      1 C1          9.5010   -5.3610    4.2450 c3        1 MOL     -0.317868
      2 C2          8.2860   -4.9140    3.4110 c         1 MOL      0.572332
      3 O1          7.1750   -4.8970    3.8470 o         1 MOL     -0.538286
      4 H1         10.3910   -5.3650    3.6160 hc        1 MOL      0.077412
      5 H2          9.6460   -4.6710    5.0760 hc        1 MOL      0.077412
      6 H3          9.3260   -6.3650    4.6320 hc        1 MOL      0.077412
      7 N1          8.4380   -4.3800    2.2010 n         1 MOL     -0.252921
      8 C3          9.6800   -4.0900    1.4530 c3        1 MOL     -0.210139
      9 C4          9.3520   -4.3170   -0.0510 c         1 MOL      0.612086
     10 O2          8.2940   -4.7970   -0.3930 o         1 MOL     -0.488519
     11 C5         10.2770   -2.7190    1.7000 c3        1 MOL      0.133443
     12 C6          9.3030   -1.5970    1.3970 c         1 MOL      0.536172
     13 O3          9.3050   -0.9830    0.3290 o         1 MOL     -0.698867
     14 O4          8.6400   -1.1420    2.3360 o         1 MOL     -0.698867
     15 H4          7.6370   -4.3240    1.5900 hn        1 MOL      0.282455
     16 H5         10.4480   -4.8350    1.6720 h1        1 MOL      0.062838
     17 H6         11.1870   -2.4300    1.1580 hc        1 MOL     -0.025425
     18 H7         10.7080   -2.7060    2.7030 hc        1 MOL     -0.025425
     19 N2         10.2640   -3.9070   -0.9080 n         1 MOL     -0.622546
     20 C7         10.0990   -3.9110   -2.3960 c3        1 MOL      0.230713
     21 C8          8.7920   -3.3800   -2.9420 c         1 MOL      0.403319
     22 O5          8.6280   -3.3700   -4.1370 o         1 MOL     -0.579415
     23 C9         10.4620   -5.3120   -2.9840 c3        1 MOL     -0.294814
     24 H8         11.1890   -3.6070   -0.6360 hn        1 MOL      0.334676
     25 H9         10.8560   -3.1880   -2.7010 h1        1 MOL      0.042216
     26 H10        10.4560   -5.3040   -4.0700 hc        1 MOL      0.081898
     27 H11        11.5030   -5.5530   -2.7700 hc        1 MOL      0.081898
     28 H12         9.8210   -6.0730   -2.5350 hc        1 MOL      0.081898
     29 N3          7.9050   -2.8090   -2.1350 n         1 MOL      0.079428
     30 C10         6.6700   -2.1710   -2.5400 c3        1 MOL     -0.154799
     31 C11         6.7880   -0.6490   -2.5630 c         1 MOL      0.578521
     32 O6          7.7460   -0.0720   -1.9480 o         1 MOL     -0.637061
     33 C12         5.5570   -2.5000   -1.4460 c3        1 MOL     -0.031971
     34 C13         5.9020   -2.2470   -0.0430 c         1 MOL      0.711007
     35 O7          6.1980   -1.0800    0.3510 o         1 MOL     -0.678656
     36 O8          5.8320   -3.2180    0.7360 o         1 MOL     -0.678656
     37 H13         8.1450   -2.9070   -1.1600 hn        1 MOL     -0.023356
     38 H14         6.3530   -2.5210   -3.5290 h1        1 MOL      0.078632
     39 H15         5.4060   -3.5600   -1.6510 hc        1 MOL      0.027283
     40 H16         4.5750   -2.0930   -1.6600 hc        1 MOL      0.027283
     41 N4          5.8370   -0.0050   -3.1940 n         1 MOL     -0.482591
     42 C14         5.5310    1.4600   -3.1460 c3        1 MOL      0.009436
     43 C15         5.1660    2.0450   -1.7730 c         1 MOL      0.597870
     44 O9          5.2190    1.3320   -0.7790 o         1 MOL     -0.552157
     45 H17         5.0880   -0.5230   -3.6360 hn        1 MOL      0.314662
     46 H18         4.8150    1.7530   -3.9120 h1        1 MOL      0.056095
     47 H19         6.4520    1.9900   -3.3920 h1        1 MOL      0.056095
     48 N5          4.8140    3.2870   -1.8190 n         1 MOL     -0.558251
     49 C16         4.3610    4.0840   -0.6340 c3        1 MOL      0.123900
     50 C17         2.9240    4.6380   -0.7170 c         1 MOL      0.517357
     51 O10         2.6570    5.4100    0.1610 o         1 MOL     -0.513566
     52 C18         5.4570    5.1730   -0.2940 c3        1 MOL     -0.208756
     53 C19         6.8540    4.6410   -0.0320 c         1 MOL      0.727463
     54 N6          7.8750    5.3850    0.0500 n         1 MOL     -0.704118
     55 O11         7.0150    3.4270    0.0280 o         1 MOL     -0.682846
     56 H20         4.9310    3.8200   -2.6750 hn        1 MOL      0.284428
     57 H21         4.3910    3.3470    0.1660 h1        1 MOL      0.098039
     58 H22         5.1630    5.6490    0.6430 hc        1 MOL      0.071605
     59 H23         5.5420    5.8920   -1.1030 hc        1 MOL      0.071605
     60 H24         7.6730    6.3590   -0.1280 hn        1 MOL      0.318727
     61 H25         8.7880    4.9950   -0.1540 hn        1 MOL      0.318727
     62 N7          2.1140    4.2030   -1.6650 n         1 MOL     -0.381665
     63 C20         0.7060    4.3870   -1.6150 c3        1 MOL     -0.064522
     64 C21         0.1990    5.8400   -1.7560 c         1 MOL      0.597992
     65 O12         0.5870    6.5590   -2.6770 o         1 MOL     -0.576318
     66 H26         2.4470    3.6740   -2.4570 hn        1 MOL      0.280997
     67 H27         0.3550    3.8380   -0.7390 h1        1 MOL      0.099832
     68 H28         0.2860    3.8780   -2.4830 h1        1 MOL      0.099832
     69 N8         -0.6360    6.3480   -0.8230 n         1 MOL     -0.541690
     70 C22        -1.1590    5.7390    0.3900 c3        1 MOL      0.119077
     71 C23        -2.1900    4.7250    0.1830 c         1 MOL      0.337898
     72 O13        -2.8060    4.6610   -0.9270 o         1 MOL     -0.510930
     73 C24        -1.7820    6.8270    1.3310 c3        1 MOL      0.491447
     74 C25        -0.6340    7.6610    1.9240 c3        1 MOL     -0.466828
     75 O14        -2.6000    7.5900    0.4820 oh        1 MOL     -0.661141
     76 H29        -0.9980    7.2700   -1.0260 hn        1 MOL      0.336673
     77 H30        -0.3440    5.2360    0.9070 h1        1 MOL      0.038758
     78 H31        -2.3310    6.2900    2.1030 h1        1 MOL     -0.032219
     79 H32        -3.5230    7.3510    0.5810 ho        1 MOL      0.455171
     80 H33         0.1300    7.0180    2.3500 hc        1 MOL      0.108550
     81 H34        -0.1070    8.2680    1.1960 hc        1 MOL      0.108550
     82 H35        -1.1650    8.3650    2.5730 hc        1 MOL      0.108550
     83 N9         -2.5040    4.0120    1.2280 n         1 MOL     -0.232170
     84 C26        -3.7190    3.0920    1.2190 c3        1 MOL     -0.071843
     85 C27        -4.9180    3.4610    2.0550 c         1 MOL      0.622011
     86 O15        -4.8320    4.4420    2.8720 o         1 MOL     -0.595067
     87 C28        -3.2100    1.7220    1.6980 c3        1 MOL     -0.029099
     88 C29        -2.7130    1.5990    3.1130 c3        1 MOL     -0.007616
     89 C30        -2.1930    1.1450    0.6770 c3        1 MOL     -0.074879
     90 C31        -2.2530    0.2380    3.6080 c3        1 MOL     -0.089745
     91 H36        -1.9740    4.1530    2.0770 hn        1 MOL      0.175712
     92 H37        -4.0160    3.0020    0.1710 h1        1 MOL      0.172209
     93 H38        -4.0030    1.0040    1.4830 hc        1 MOL      0.102200
     94 H39        -3.5970    1.8440    3.6990 hc        1 MOL     -0.000209
     95 H40        -1.8950    2.3100    3.2290 hc        1 MOL     -0.000209
     96 H41        -2.0870    0.0790    0.8420 hc        1 MOL      0.012558
     97 H42        -2.4570    1.3100   -0.3750 hc        1 MOL      0.012558
     98 H43        -1.2280    1.6410    0.7540 hc        1 MOL      0.012558
     99 H44        -1.2050    0.0900    3.3360 hc        1 MOL      0.022298
    100 H45        -2.2680    0.2560    4.6980 hc        1 MOL      0.022298
    101 H46        -2.8520   -0.5360    3.1250 hc        1 MOL      0.022298
    102 N10        -6.0800    2.8620    1.8370 n         1 MOL     -0.493801
    103 C32        -6.5130    2.2510    0.5480 c3        1 MOL     -0.176168
    104 C33        -7.6660    1.2010    0.6940 c         1 MOL      0.613304
    105 O16        -8.2640    1.0260    1.7440 o         1 MOL     -0.521060
    106 C34        -7.0250    3.3040   -0.5000 c3        1 MOL      0.036456
    107 C35        -7.6990    4.4260    0.2110 c         1 MOL      0.667981
    108 O17        -6.9690    5.4680    0.2510 o         1 MOL     -0.699831
    109 O18        -8.9580    4.4340    0.4370 o         1 MOL     -0.699831
    110 H47        -6.8150    2.8840    2.5220 hn        1 MOL      0.332533
    111 H48        -5.6810    1.7260    0.0660 h1        1 MOL      0.071250
    112 H49        -7.6530    2.8820   -1.2810 hc        1 MOL     -0.001132
    113 H50        -6.1570    3.7050   -1.0200 hc        1 MOL     -0.001132
    114 N11        -7.9190    0.4120   -0.4300 n         1 MOL     -0.576413
    115 C36        -8.9390   -0.6530   -0.5510 c3        1 MOL      0.279059
    116 C37        -8.5540   -1.5300   -1.7540 c         1 MOL      0.073232
    117 O19        -8.3270   -0.9720   -2.8280 o         1 MOL     -0.448499
    118 C38       -10.4050   -0.1180   -0.7420 c3        1 MOL     -0.169897
    119 C39       -11.4640   -1.2330   -0.8720 ca        1 MOL      0.118128
    120 C40       -11.8450   -1.7430   -2.1180 ca        1 MOL     -0.189806
    121 C41       -12.0030   -1.7270    0.3310 ca        1 MOL     -0.189806
    122 C42       -12.8430   -2.7810   -2.0910 ca        1 MOL     -0.096127
    123 C43       -12.9470   -2.7680    0.3460 ca        1 MOL     -0.096127
    124 C44       -13.4300   -3.2500   -0.8970 ca        1 MOL     -0.177073
    125 H51        -7.2730    0.4910   -1.1960 hn        1 MOL      0.350108
    126 H52        -8.8520   -1.2280    0.3650 h1        1 MOL      0.017944
    127 H53       -10.5230    0.5880   -1.5520 hc        1 MOL      0.088152
    128 H54       -10.6710    0.4720    0.1380 hc        1 MOL      0.088152
    129 H55       -11.3050   -1.5170   -3.0180 ha        1 MOL      0.143654
    130 H56       -11.7140   -1.3210    1.2840 ha        1 MOL      0.143654
    131 H57       -13.1210   -3.3220   -2.9760 ha        1 MOL      0.099757
    132 H58       -13.1440   -3.1850    1.3210 ha        1 MOL      0.099757
    133 H59       -14.1060   -4.1010   -0.8860 ha        1 MOL      0.104426
    134 N12        -8.5210   -2.8700   -1.6820 n         1 MOL      0.090485
    135 C45        -8.7990   -3.6460   -0.4510 c3        1 MOL      0.097487
    136 C46        -7.7050   -3.7690    0.5620 c         1 MOL      0.599293
    137 O20        -8.0040   -3.7970    1.7480 o         1 MOL     -0.615518
    138 C47        -9.2460   -4.9730   -0.9280 c3        1 MOL     -0.049202
    139 C48        -8.4630   -5.2200   -2.2060 c3        1 MOL     -0.106440
    140 C49        -8.2100   -3.8330   -2.7160 c3        1 MOL      0.010988
    141 H60        -9.6060   -3.2480    0.1760 h1        1 MOL     -0.009546
    142 H61        -9.1820   -5.7410   -0.1580 hc        1 MOL      0.014746
    143 H62       -10.2660   -4.9210   -1.2970 hc        1 MOL      0.014746
    144 H63        -7.5100   -5.6700   -1.9370 hc        1 MOL      0.038370
    145 H64        -8.9790   -5.7900   -2.9840 hc        1 MOL      0.038370
    146 H65        -7.1930   -3.7400   -3.0720 h1        1 MOL      0.035043
    147 H66        -8.8800   -3.5760   -3.5400 h1        1 MOL      0.035043
    148 N13        -6.4980   -3.7740    0.1130 n         1 MOL     -0.428130
    149 C50        -5.4400   -4.1680    1.0720 c3        1 MOL      0.063368
    150 C51        -5.4740   -5.7040    1.3250 c         1 MOL      0.396493
    151 O21        -5.2230   -6.5170    0.4210 o         1 MOL     -0.555863
    152 C52        -4.0850   -3.7730    0.4880 c3        1 MOL     -0.267963
    153 C53        -3.8270   -2.2590    0.2850 c3        1 MOL      0.035013
    154 C54        -3.8200   -1.8080   -1.1950 c         1 MOL      0.679857
    155 O22        -4.8900   -1.9580   -1.8600 o         1 MOL     -0.693744
    156 O23        -2.7630   -1.3470   -1.6480 o         1 MOL     -0.693744
    157 H67        -6.2860   -3.7560   -0.8800 hn        1 MOL      0.292044
    158 H68        -5.5510   -3.5570    1.9680 h1        1 MOL      0.145234
    159 H69        -3.9650   -4.2170   -0.5040 hc        1 MOL      0.087159
    160 H70        -3.3430   -4.3270    1.0770 hc        1 MOL      0.087159
    161 H71        -2.8810   -1.9590    0.7460 hc        1 MOL     -0.034256
    162 H72        -4.5780   -1.6720    0.8200 hc        1 MOL     -0.034256
    163 N14        -5.7070   -6.1170    2.5630 n         1 MOL     -0.240915
    164 C55        -5.8830   -5.4740    3.7750 c3        1 MOL     -0.058962
    165 H73        -6.9110   -5.6060    4.1090 h1        1 MOL      0.046030
    166 H74        -5.2040   -5.9000    4.5140 h1        1 MOL      0.046030
    167 H75        -5.6730   -4.4110    3.6570 h1        1 MOL      0.046030
    168 H76        -5.6670   -7.1210    2.6000 hn        1 MOL      0.231636
    169 Ca1         7.7540    0.9710    0.6560 Ca        1 MOL      1.764381
    170 O24         6.1110    1.7640    2.4760 oh        1 MOL     -0.828013
    171 H77         5.9250    2.3930    3.1690 ho        1 MOL      0.411064
    172 H78         5.2470    1.4370    2.2240 ho        1 MOL      0.411064
    173 O25         9.3770    2.1200    2.6710 oh        1 MOL     -0.828013
    174 H79         9.3500    1.9300    3.6040 ho        1 MOL      0.411064
    175 H80         9.9140    2.9150    2.5960 ho        1 MOL      0.411064
    176 O26         9.6980    1.7150   -0.7940 oh        1 MOL     -0.828013
    177 H81         9.8840    1.1810   -1.5690 ho        1 MOL      0.411064
    178 H82        10.2910    2.4560   -0.8660 ho        1 MOL      0.411064
@<TRIPOS>BOND
     1    1    2 1   
     2    1    4 1   
     3    1    5 1   
     4    1    6 1   
     5    2    3 2   
     6    2    7 1   
     7    7    8 1   
     8    7   15 1   
     9    8    9 1   
    10    8   11 1   
    11    8   16 1   
    12    9   10 2   
    13    9   19 1   
    14   11   12 1   
    15   11   17 1   
    16   11   18 1   
    17   12   13 1   
    18   12   14 1   
    19   19   20 1   
    20   19   24 1   
    21   20   21 1   
    22   20   23 1   
    23   20   25 1   
    24   21   22 2   
    25   21   29 1   
    26   23   26 1   
    27   23   27 1   
    28   23   28 1   
    29   29   30 1   
    30   29   37 1   
    31   30   31 1   
    32   30   33 1   
    33   30   38 1   
    34   31   32 2   
    35   31   41 1   
    36   33   34 1   
    37   33   39 1   
    38   33   40 1   
    39   34   35 1   
    40   34   36 1   
    41   41   42 1   
    42   41   45 1   
    43   42   43 1   
    44   42   46 1   
    45   42   47 1   
    46   43   44 2   
    47   43   48 1   
    48   48   49 1   
    49   48   56 1   
    50   49   50 1   
    51   49   52 1   
    52   49   57 1   
    53   50   51 2   
    54   50   62 1   
    55   52   53 1   
    56   52   58 1   
    57   52   59 1   
    58   53   54 1   
    59   53   55 2   
    60   54   60 1   
    61   54   61 1   
    62   62   63 1   
    63   62   66 1   
    64   63   64 1   
    65   63   67 1   
    66   63   68 1   
    67   64   65 2   
    68   64   69 1   
    69   69   70 1   
    70   69   76 1   
    71   70   71 1   
    72   70   73 1   
    73   70   77 1   
    74   71   72 2   
    75   71   83 1   
    76   73   74 1   
    77   73   75 1   
    78   73   78 1   
    79   74   80 1   
    80   74   81 1   
    81   74   82 1   
    82   75   79 1   
    83   83   84 1   
    84   83   91 1   
    85   84   85 1   
    86   84   87 1   
    87   84   92 1   
    88   85   86 2   
    89   85  102 1   
    90   87   88 1   
    91   87   89 1   
    92   87   93 1   
    93   88   90 1   
    94   88   94 1   
    95   88   95 1   
    96   89   96 1   
    97   89   97 1   
    98   89   98 1   
    99   90   99 1   
   100   90  100 1   
   101   90  101 1   
   102  102  103 1   
   103  102  110 1   
   104  103  104 1   
   105  103  106 1   
   106  103  111 1   
   107  104  105 2   
   108  104  114 1   
   109  106  107 1   
   110  106  112 1   
   111  106  113 1   
   112  107  108 1   
   113  107  109 1   
   114  114  115 1   
   115  114  125 1   
   116  115  116 1   
   117  115  118 1   
   118  115  126 1   
   119  116  117 2   
   120  116  134 1   
   121  118  119 1   
   122  118  127 1   
   123  118  128 1   
   124  119  120 ar  
   125  119  121 ar  
   126  120  122 ar  
   127  120  129 1   
   128  121  123 ar  
   129  121  130 1   
   130  122  124 ar  
   131  122  131 1   
   132  123  124 ar  
   133  123  132 1   
   134  124  133 1   
   135  134  135 1   
   136  134  140 1   
   137  135  136 1   
   138  135  138 1   
   139  135  141 1   
   140  136  137 2   
   141  136  148 1   
   142  138  139 1   
   143  138  142 1   
   144  138  143 1   
   145  139  140 1   
   146  139  144 1   
   147  139  145 1   
   148  140  146 1   
   149  140  147 1   
   150  148  149 1   
   151  148  157 1   
   152  149  150 1   
   153  149  152 1   
   154  149  158 1   
   155  150  151 2   
   156  150  163 1   
   157  152  153 1   
   158  152  159 1   
   159  152  160 1   
   160  153  154 1   
   161  153  161 1   
   162  153  162 1   
   163  154  155 1   
   164  154  156 1   
   165  163  164 1   
   166  163  168 1   
   167  164  165 1   
   168  164  166 1   
   169  164  167 1   
   170  170  171 1   
   171  170  172 1   
   172  173  174 1   
   173  173  175 1   
   174  176  177 1   
   175  176  178 1   
@<TRIPOS>SUBSTRUCTURE
     1 MOL         1 TEMP              0 ****  ****    0 ROOT
