@<TRIPOS>MOLECULE
MOL
  192   187     1     0     0
SMALL
resp


@<TRIPOS>ATOM
      1 C1         -2.9350    5.4730   -2.0950 c3        1 MOL     -0.278058
      2 C2         -1.9470    4.8640   -1.1450 c         1 MOL      0.596564
      3 O1         -1.7570    3.6770   -1.1770 o         1 MOL     -0.461279
      4 H1         -3.5940    6.1500   -1.5510 hc        1 MOL      0.065954
      5 H2         -2.4030    6.0290   -2.8670 hc        1 MOL      0.065954
      6 H3         -3.5280    4.6850   -2.5590 hc        1 MOL      0.065954
      7 N1         -1.2440    5.6260   -0.2300 n         1 MOL     -0.934371
      8 C3         -0.2450    5.0410    0.7000 c3        1 MOL     -0.002551
      9 C4          1.0810    4.5730    0.0260 c         1 MOL      0.604124
     10 O2          1.9400    4.2260    0.8460 o         1 MOL     -0.557840
     11 C5         -0.8100    3.9900    1.7120 c3        1 MOL     -0.605336
     12 C6         -2.2190    4.1440    2.0180 c         1 MOL      0.980843
     13 O3         -3.1160    3.2820    1.6980 o         1 MOL     -0.746624
     14 O4         -2.6170    5.1340    2.7100 o         1 MOL     -0.746624
     15 H4         -1.3620    6.6310   -0.2020 hn        1 MOL      0.453067
     16 H5          0.0440    5.9430    1.2460 h1        1 MOL      0.158007
     17 H6         -0.1470    3.8550    2.5630 hc        1 MOL      0.190496
     18 H7         -0.7740    3.0440    1.1680 hc        1 MOL      0.190496
     19 N2          1.2490    4.5710   -1.3180 n         1 MOL     -0.411639
     20 C7          2.6360    4.2140   -1.8940 c3        1 MOL      0.018200
     21 C8          3.7130    5.0760   -1.2310 c         1 MOL      0.322167
     22 O5          3.5510    6.2880   -1.0370 o         1 MOL     -0.553378
     23 C9          2.7010    4.0590   -3.4310 c3        1 MOL      0.151448
     24 C10         2.5170    5.4310   -4.1350 c3        1 MOL      0.168723
     25 C11         1.7440    2.9770   -3.9920 c3        1 MOL     -0.348679
     26 C12         3.8540    6.1580   -4.4420 c3        1 MOL     -0.016944
     27 H8          0.5110    4.8480   -1.9500 hn        1 MOL      0.391655
     28 H9          2.8670    3.2010   -1.5780 h1        1 MOL      0.042666
     29 H10         3.7260    3.7170   -3.6100 hc        1 MOL      0.032826
     30 H11         1.8620    6.0070   -3.4800 hc        1 MOL     -0.081739
     31 H12         2.0290    5.3380   -5.1060 hc        1 MOL     -0.081739
     32 H13         1.8290    2.0150   -3.4700 hc        1 MOL      0.088587
     33 H14         0.7380    3.3810   -3.8690 hc        1 MOL      0.088587
     34 H15         2.1140    2.6120   -4.9450 hc        1 MOL      0.088587
     35 H16         4.2280    5.9020   -5.4340 hc        1 MOL     -0.006494
     36 H17         3.6780    7.2280   -4.4420 hc        1 MOL     -0.006494
     37 H18         4.6560    5.9580   -3.7400 hc        1 MOL     -0.006494
     38 N3          4.8850    4.6210   -0.9200 n         1 MOL     -0.250027
     39 C13         5.3860    3.2110   -1.1520 c3        1 MOL      0.075787
     40 C14         5.3720    2.4400    0.1950 c         1 MOL      0.452230
     41 O6          5.4920    1.2300    0.1660 o         1 MOL     -0.509861
     42 C15         6.8230    3.2870   -1.7390 c3        1 MOL     -0.117543
     43 C16         7.0550    4.1590   -2.8990 c         1 MOL      0.774963
     44 O7          7.8640    5.1310   -2.6990 o         1 MOL     -0.732178
     45 O8          6.5550    3.9470   -4.0070 o         1 MOL     -0.732178
     46 H19         5.5730    5.2520   -0.5320 hn        1 MOL      0.263798
     47 H20         4.8490    2.6690   -1.9300 h1        1 MOL      0.040044
     48 H21         7.1450    2.2740   -1.9960 hc        1 MOL     -0.011683
     49 H22         7.3530    3.7170   -0.8980 hc        1 MOL     -0.011683
     50 N4          5.2230    3.0230    1.3550 n         1 MOL     -0.154933
     51 C17         5.2420    2.3790    2.6730 c3        1 MOL     -0.314631
     52 C18         6.4650    1.5540    2.8650 c         1 MOL      0.595083
     53 O9          7.5550    2.0560    2.7680 o         1 MOL     -0.588075
     54 H23         5.1620    4.0340    1.3550 hn        1 MOL      0.215399
     55 H24         4.3110    1.8390    2.8220 h1        1 MOL      0.128402
     56 H25         5.2720    3.1220    3.4720 h1        1 MOL      0.128402
     57 N5          6.3580    0.2530    3.0360 n         1 MOL     -0.521225
     58 C19         7.4640   -0.6960    3.1660 c3        1 MOL      0.257799
     59 C20         8.0020   -1.1510    1.7770 c         1 MOL      0.400538
     60 O10         8.8720   -2.0060    1.7130 o         1 MOL     -0.566933
     61 C21         6.9850   -1.8820    4.0150 c3        1 MOL     -0.381236
     62 C22         5.8210   -2.7010    3.3200 c         1 MOL      0.744248
     63 O11         5.1280   -2.2190    2.4100 o         1 MOL     -0.684075
     64 O12         5.6230   -3.8800    3.7090 o         1 MOL     -0.684075
     65 H26         5.4050   -0.0930    3.0360 hn        1 MOL      0.276610
     66 H27         8.3490   -0.2860    3.6580 h1        1 MOL      0.048681
     67 H28         6.7550   -1.4750    4.9980 hc        1 MOL      0.077175
     68 H29         7.8160   -2.5730    4.1330 hc        1 MOL      0.077175
     69 N6          7.4540   -0.6660    0.6800 n         1 MOL     -0.186626
     70 C23         7.7280   -1.2760   -0.6350 c3        1 MOL     -0.277733
     71 C24         6.8260   -2.4180   -1.0830 c         1 MOL      0.488903
     72 O13         7.0770   -2.9080   -2.2030 o         1 MOL     -0.567922
     73 H30         6.6150   -0.1030    0.7310 hn        1 MOL      0.199881
     74 H31         8.7640   -1.6280   -0.6140 h1        1 MOL      0.146291
     75 H32         7.6550   -0.4870   -1.3810 h1        1 MOL      0.146291
     76 N7          5.9110   -2.8830   -0.2310 n         1 MOL     -0.029933
     77 C25         5.0400   -4.0960   -0.4660 c3        1 MOL      0.193972
     78 C26         4.0650   -4.0870   -1.6710 c         1 MOL      0.414300
     79 O14         3.6940   -5.0680   -2.2730 o         1 MOL     -0.493421
     80 C27         5.9920   -5.3010   -0.4130 c3        1 MOL     -0.127456
     81 C28         7.0580   -5.2560    0.7330 c3        1 MOL     -0.028341
     82 C29         7.8830   -6.5740    0.7870 c         1 MOL      0.629137
     83 N8          8.6010   -6.8640    1.8550 n         1 MOL     -0.759240
     84 O15         8.0550   -7.3660   -0.1180 o         1 MOL     -0.561718
     85 H33         5.7500   -2.4290    0.6650 hn        1 MOL      0.096043
     86 H34         4.3720   -4.1430    0.3890 h1        1 MOL      0.039136
     87 H35         6.5260   -5.4570   -1.3570 hc        1 MOL      0.015043
     88 H36         5.3840   -6.1890   -0.2020 hc        1 MOL      0.015043
     89 H37         6.5680   -5.0830    1.6980 hc        1 MOL      0.023484
     90 H38         7.7120   -4.4040    0.5910 hc        1 MOL      0.023484
     91 H39         8.2920   -6.4230    2.7060 hn        1 MOL      0.324435
     92 H40         9.0350   -7.7640    1.9780 hn        1 MOL      0.324435
     93 N9          3.4930   -2.8470   -1.9130 n         1 MOL     -0.316544
     94 C30         2.5000   -2.4770   -2.9580 c3        1 MOL      0.030415
     95 C31         1.0470   -2.1620   -2.5140 c         1 MOL      0.687634
     96 O16         0.1300   -2.3180   -3.2610 o         1 MOL     -0.554538
     97 C32         3.0520   -1.4450   -4.0250 c3        1 MOL      0.164153
     98 C33         3.4480   -0.1590   -3.2880 c3        1 MOL     -0.206069
     99 C34         4.3220   -2.0740   -4.6820 c3        1 MOL     -0.206069
    100 H41         3.7550   -2.0780   -1.3180 hn        1 MOL      0.123056
    101 H42         2.3240   -3.3600   -3.5680 h1        1 MOL      0.063092
    102 H43         2.2580   -1.2790   -4.7410 hc        1 MOL     -0.026846
    103 H44         2.6670    0.0950   -2.5730 hc        1 MOL      0.051837
    104 H45         4.3830   -0.1510   -2.7320 hc        1 MOL      0.051837
    105 H46         3.4970    0.6180   -4.0470 hc        1 MOL      0.051837
    106 H47         4.6860   -1.3070   -5.3700 hc        1 MOL      0.051837
    107 H48         5.0200   -2.2800   -3.8680 hc        1 MOL      0.051837
    108 H49         4.0480   -2.9840   -5.2100 hc        1 MOL      0.051837
    109 N10         0.8460   -1.9230   -1.1900 n         1 MOL     -0.776140
    110 C35        -0.3560   -1.3110   -0.6080 c3        1 MOL      0.178627
    111 C36        -1.4600   -2.3540   -0.2410 c         1 MOL      0.751676
    112 O17        -1.1940   -3.5690   -0.0580 o         1 MOL     -0.513258
    113 C37         0.0310   -0.4000    0.5490 c3        1 MOL     -0.229300
    114 C38         0.8490    0.8580    0.1090 c         1 MOL      0.759509
    115 N11         1.5280    1.3870    1.0930 n         1 MOL     -0.795124
    116 O18         0.8600    1.3040   -0.9720 o         1 MOL     -0.514650
    117 H50         1.6600   -1.7720   -0.6170 hn        1 MOL      0.353943
    118 H51        -0.7810   -0.5400   -1.2590 h1        1 MOL      0.016825
    119 H52         0.6160   -1.0340    1.2160 hc        1 MOL      0.052062
    120 H53        -0.8910   -0.0990    1.0330 hc        1 MOL      0.052062
    121 H54         1.4740    1.1300    2.0630 hn        1 MOL      0.344784
    122 H55         2.1930    2.0860    0.8080 hn        1 MOL      0.344784
    123 N12        -2.6950   -1.8630   -0.1870 n         1 MOL     -0.815511
    124 C39        -3.7740   -2.6780    0.2760 c3        1 MOL      0.419248
    125 C40        -4.9680   -2.5820   -0.5800 c         1 MOL      0.576819
    126 O19        -5.0180   -1.7630   -1.5390 o         1 MOL     -0.542364
    127 C41        -4.0450   -2.3540    1.7830 c3        1 MOL     -0.188470
    128 C42        -3.0550   -3.0960    2.6760 ca        1 MOL      0.454170
    129 C43        -2.0700   -2.3300    3.3620 ca        1 MOL     -0.538427
    130 C44        -3.1040   -4.4350    2.8210 ca        1 MOL     -0.538427
    131 C45        -1.1130   -3.0310    4.1880 ca        1 MOL     -0.002987
    132 C46        -2.1200   -5.1560    3.5490 ca        1 MOL     -0.002987
    133 C47        -1.1680   -4.4380    4.3030 ca        1 MOL      0.119223
    134 O20        -0.2440   -5.0350    5.0500 oh        1 MOL     -0.446470
    135 H56        -2.7750   -0.8780   -0.3880 hn        1 MOL      0.362948
    136 H57        -3.4450   -3.7140    0.2210 h1        1 MOL      0.018814
    137 H58        -5.0210   -2.7140    2.1160 hc        1 MOL      0.019508
    138 H59        -4.0410   -1.2870    1.9670 hc        1 MOL      0.019508
    139 H60        -2.0590   -1.2550    3.3020 ha        1 MOL      0.225851
    140 H61        -3.8600   -5.0720    2.3970 ha        1 MOL      0.225851
    141 H62        -0.3610   -2.4850    4.7330 ha        1 MOL      0.097419
    142 H63        -2.2340   -6.2260    3.6520 ha        1 MOL      0.097419
    143 H64         0.2540   -4.4030    5.5800 ho        1 MOL      0.359929
    144 N13        -5.8670   -3.5190   -0.3600 n         1 MOL     -0.704877
    145 C48        -7.0900   -3.5310   -1.0930 c3        1 MOL      0.380028
    146 C49        -8.2540   -3.3730   -0.1230 c         1 MOL      0.668287
    147 O21        -8.7030   -4.3570    0.4080 o         1 MOL     -0.575342
    148 C50        -7.2380   -4.7360   -2.0280 c3        1 MOL      0.088729
    149 C51        -8.3450   -4.5410   -3.0870 c3        1 MOL     -0.255017
    150 C52        -8.8510   -5.8150   -3.8380 c         1 MOL      0.677608
    151 O22        -9.2950   -5.6450   -5.0010 o         1 MOL     -0.689987
    152 O23        -8.7990   -6.9370   -3.2630 o         1 MOL     -0.689987
    153 H65        -5.6830   -4.2700    0.2980 hn        1 MOL      0.288379
    154 H66        -7.0010   -2.6480   -1.7150 h1        1 MOL     -0.071106
    155 H67        -7.3550   -5.7140   -1.5470 hc        1 MOL     -0.014195
    156 H68        -6.3240   -4.8390   -2.6200 hc        1 MOL     -0.014195
    157 H69        -8.0940   -3.7480   -3.8050 hc        1 MOL      0.058136
    158 H70        -9.2080   -4.1970   -2.5220 hc        1 MOL      0.058136
    159 N14        -8.7660   -2.1650    0.1640 n         1 MOL     -0.742325
    160 C53        -8.4770   -0.8050   -0.4120 c3        1 MOL      0.315598
    161 C54        -9.2920   -0.3850   -1.6740 c         1 MOL      0.457112
    162 O24       -10.4380   -0.8150   -1.8620 o         1 MOL     -0.527956
    163 C55        -8.5150    0.2640    0.6810 c3        1 MOL     -0.068002
    164 C56        -7.2930    0.3590    1.6400 c3        1 MOL     -0.242983
    165 C57        -7.2350    1.5990    2.5370 c         1 MOL      0.686620
    166 O25        -8.2240    1.8900    3.2170 o         1 MOL     -0.678219
    167 O26        -6.1550    2.1530    2.6940 o         1 MOL     -0.678219
    168 H71        -9.3260   -2.0680    1.0090 hn        1 MOL      0.358838
    169 H72        -7.4350   -0.8050   -0.7650 h1        1 MOL     -0.086351
    170 H73        -9.3410    0.1080    1.3740 hc        1 MOL     -0.019481
    171 H74        -8.6960    1.2500    0.2440 hc        1 MOL     -0.019481
    172 H75        -6.4350    0.2940    0.9820 hc        1 MOL      0.107936
    173 H76        -7.2880   -0.5190    2.2810 hc        1 MOL      0.107936
    174 N15        -8.6180    0.4030   -2.4870 n         1 MOL     -0.267756
    175 C58        -8.9830    0.9730   -3.7460 c3        1 MOL     -0.382485
    176 H77        -9.4870    1.9250   -3.5810 h1        1 MOL      0.144892
    177 H78        -8.0870    1.1350   -4.3450 h1        1 MOL      0.144892
    178 H79        -9.6540    0.2940   -4.2710 h1        1 MOL      0.144892
    179 H80        -7.7770    0.7550   -2.0510 hn        1 MOL      0.285070
    180 Ca1        -5.3400    4.5440    2.0740 Ca        1 MOL      1.689894
    181 O27        -7.7390    4.8210    3.5090 oh        1 MOL     -0.888439
    182 O28        -5.3830    3.2880   -0.2240 oh        1 MOL     -0.888439
    183 H81        -8.0540    4.0110    3.9190 ho        1 MOL      0.417557
    184 H82        -4.5680    3.2760   -0.7280 ho        1 MOL      0.417557
    185 H83        -8.5000    5.3910    3.4650 ho        1 MOL      0.417557
    186 H84        -6.0330    2.8980   -0.8080 ho        1 MOL      0.417557
    187 O29        -5.3810    6.7510    3.4760 oh        1 MOL     -0.888439
    188 H85        -4.8040    7.0980    4.1640 ho        1 MOL      0.417557
    189 H86        -6.0590    7.4140    3.3810 ho        1 MOL      0.417557
    190 O30        -4.4310    3.5650    4.8470 oh        1 MOL     -0.888439
    191 H87        -3.6180    3.8120    5.2780 ho        1 MOL      0.417557
    192 H88        -5.0860    3.5590    5.5510 ho        1 MOL      0.417557
@<TRIPOS>BOND
     1    1    2 1   
     2    1    4 1   
     3    1    5 1   
     4    1    6 1   
     5    2    3 2   
     6    2    7 1   
     7    7    8 1   
     8    7   15 1   
     9    8    9 1   
    10    8   11 1   
    11    8   16 1   
    12    9   10 2   
    13    9   19 1   
    14   11   12 1   
    15   11   17 1   
    16   11   18 1   
    17   12   13 1   
    18   12   14 1   
    19   19   20 1   
    20   19   27 1   
    21   20   21 1   
    22   20   23 1   
    23   20   28 1   
    24   21   22 2   
    25   21   38 1   
    26   23   24 1   
    27   23   25 1   
    28   23   29 1   
    29   24   26 1   
    30   24   30 1   
    31   24   31 1   
    32   25   32 1   
    33   25   33 1   
    34   25   34 1   
    35   26   35 1   
    36   26   36 1   
    37   26   37 1   
    38   38   39 1   
    39   38   46 1   
    40   39   40 1   
    41   39   42 1   
    42   39   47 1   
    43   40   41 2   
    44   40   50 1   
    45   42   43 1   
    46   42   48 1   
    47   42   49 1   
    48   43   44 1   
    49   43   45 1   
    50   50   51 1   
    51   50   54 1   
    52   51   52 1   
    53   51   55 1   
    54   51   56 1   
    55   52   53 2   
    56   52   57 1   
    57   57   58 1   
    58   57   65 1   
    59   58   59 1   
    60   58   61 1   
    61   58   66 1   
    62   59   60 2   
    63   59   69 1   
    64   61   62 1   
    65   61   67 1   
    66   61   68 1   
    67   62   63 1   
    68   62   64 1   
    69   69   70 1   
    70   69   73 1   
    71   70   71 1   
    72   70   74 1   
    73   70   75 1   
    74   71   72 2   
    75   71   76 1   
    76   76   77 1   
    77   76   85 1   
    78   77   78 1   
    79   77   80 1   
    80   77   86 1   
    81   78   79 2   
    82   78   93 1   
    83   80   81 1   
    84   80   87 1   
    85   80   88 1   
    86   81   82 1   
    87   81   89 1   
    88   81   90 1   
    89   82   83 1   
    90   82   84 2   
    91   83   91 1   
    92   83   92 1   
    93   93   94 1   
    94   93  100 1   
    95   94   95 1   
    96   94   97 1   
    97   94  101 1   
    98   95   96 2   
    99   95  109 1   
   100   97   98 1   
   101   97   99 1   
   102   97  102 1   
   103   98  103 1   
   104   98  104 1   
   105   98  105 1   
   106   99  106 1   
   107   99  107 1   
   108   99  108 1   
   109  109  110 1   
   110  109  117 1   
   111  110  111 1   
   112  110  113 1   
   113  110  118 1   
   114  111  112 2   
   115  111  123 1   
   116  113  114 1   
   117  113  119 1   
   118  113  120 1   
   119  114  115 1   
   120  114  116 2   
   121  115  121 1   
   122  115  122 1   
   123  123  124 1   
   124  123  135 1   
   125  124  125 1   
   126  124  127 1   
   127  124  136 1   
   128  125  126 2   
   129  125  144 1   
   130  127  128 1   
   131  127  137 1   
   132  127  138 1   
   133  128  129 ar  
   134  128  130 ar  
   135  129  131 ar  
   136  129  139 1   
   137  130  132 ar  
   138  130  140 1   
   139  131  133 ar  
   140  131  141 1   
   141  132  133 ar  
   142  132  142 1   
   143  133  134 1   
   144  134  143 1   
   145  144  145 1   
   146  144  153 1   
   147  145  146 1   
   148  145  148 1   
   149  145  154 1   
   150  146  147 2   
   151  146  159 1   
   152  148  149 1   
   153  148  155 1   
   154  148  156 1   
   155  149  150 1   
   156  149  157 1   
   157  149  158 1   
   158  150  151 1   
   159  150  152 1   
   160  159  160 1   
   161  159  168 1   
   162  160  161 1   
   163  160  163 1   
   164  160  169 1   
   165  161  162 2   
   166  161  174 1   
   167  163  164 1   
   168  163  170 1   
   169  163  171 1   
   170  164  165 1   
   171  164  172 1   
   172  164  173 1   
   173  165  166 1   
   174  165  167 1   
   175  174  175 1   
   176  174  179 1   
   177  175  176 1   
   178  175  177 1   
   179  175  178 1   
   180  181  183 1   
   181  181  185 1   
   182  182  184 1   
   183  182  186 1   
   184  187  188 1   
   185  187  189 1   
   186  190  191 1   
   187  190  192 1   
@<TRIPOS>SUBSTRUCTURE
     1 MOL         1 TEMP              0 ****  ****    0 ROOT
