@<TRIPOS>MOLECULE
MOL
  181   177     1     0     0
SMALL
resp


@<TRIPOS>ATOM
      1 C1          2.6010   -2.1520    4.3230 c3        1 MOL     -0.304191
      2 C2          3.5400   -1.1470    3.7110 c         1 MOL      0.624070
      3 O1          3.2350   -0.0450    3.3370 o         1 MOL     -0.520933
      4 H1          2.2360   -1.7730    5.2780 hc        1 MOL      0.067084
      5 H2          1.7580   -2.3180    3.6520 hc        1 MOL      0.067084
      6 H3          3.1280   -3.0920    4.4830 hc        1 MOL      0.067084
      7 N1          4.7710   -1.5810    3.8400 n         1 MOL     -0.496945
      8 C3          5.9010   -0.6910    3.5230 c3        1 MOL      0.270311
      9 C4          6.7130   -1.1640    2.3010 c         1 MOL      0.459902
     10 O2          6.8640   -0.3610    1.3390 o         1 MOL     -0.506648
     11 C5          6.8100   -0.6700    4.7830 c3        1 MOL     -0.096436
     12 C6          8.0160    0.2810    4.7880 c         1 MOL      0.658090
     13 O3          8.9820    0.1820    3.9840 o         1 MOL     -0.705279
     14 O4          7.9300    1.2070    5.6250 o         1 MOL     -0.705279
     15 H4          4.9740   -2.4130    4.3900 hn        1 MOL      0.279059
     16 H5          5.4730    0.2830    3.2820 h1        1 MOL      0.027078
     17 H6          7.1340   -1.6620    5.0810 hc        1 MOL     -0.034170
     18 H7          6.1160   -0.3860    5.5740 hc        1 MOL     -0.034170
     19 N2          6.8500   -2.4720    2.2930 n         1 MOL     -0.547136
     20 C7          7.4800   -3.2760    1.2180 c3        1 MOL      0.328509
     21 C8          6.9580   -3.0450   -0.1950 c         1 MOL      0.421107
     22 O5          7.7690   -3.0500   -1.1240 o         1 MOL     -0.507660
     23 C9          9.0530   -3.0930    1.3420 c3        1 MOL     -0.589368
     24 H8          6.3020   -2.9520    2.9920 hn        1 MOL      0.263713
     25 H9          7.2550   -4.3080    1.4960 h1        1 MOL      0.011568
     26 H10         9.4620   -3.3020    2.3320 hc        1 MOL      0.168885
     27 H11         9.5490   -3.9020    0.8040 hc        1 MOL      0.168885
     28 H12         9.2930   -2.0640    1.0870 hc        1 MOL      0.168885
     29 N3          5.6660   -2.7400   -0.3430 n         1 MOL     -0.496819
     30 C10         5.0380   -2.5340   -1.6480 c3        1 MOL      0.078939
     31 C11         5.6420   -1.3140   -2.2960 c         1 MOL      0.566487
     32 O6          5.8120   -1.2650   -3.5210 o         1 MOL     -0.510389
     33 C12         5.1340   -3.6930   -2.5530 c3        1 MOL     -0.115453
     34 C13         4.0330   -3.7880   -3.5430 c         1 MOL      0.674728
     35 O7          4.1970   -4.2020   -4.6920 o         1 MOL     -0.688331
     36 O8          2.8550   -3.4310   -3.2070 o         1 MOL     -0.688331
     37 H13         5.0380   -2.6890    0.4550 hn        1 MOL      0.263639
     38 H14         3.9760   -2.3710   -1.4450 h1        1 MOL      0.025496
     39 H15         5.1180   -4.5930   -1.9450 hc        1 MOL      0.030324
     40 H16         6.1060   -3.7700   -3.0430 hc        1 MOL      0.030324
     41 N4          5.8680   -0.2360   -1.4660 n         1 MOL     -0.221441
     42 C14         6.3150    1.0690   -1.9930 c3        1 MOL     -0.068132
     43 C15         5.1950    1.8210   -2.6570 c         1 MOL      0.403642
     44 O9          5.4420    2.5070   -3.6530 o         1 MOL     -0.535318
     45 H17         5.9660   -0.5520   -0.5150 hn        1 MOL      0.189949
     46 H18         7.1490    0.9870   -2.6990 h1        1 MOL      0.084434
     47 H19         6.6580    1.7170   -1.1800 h1        1 MOL      0.084434
     48 N5          3.9840    1.6380   -2.2710 n         1 MOL     -0.250182
     49 C16         2.8850    2.0550   -3.1670 c3        1 MOL     -0.072348
     50 C17         2.6160    3.5590   -3.2880 c         1 MOL      0.410366
     51 O10         2.2110    3.9670   -4.4170 o         1 MOL     -0.494174
     52 C18         1.6700    1.3050   -2.6760 c3        1 MOL     -0.241181
     53 C19         1.9910   -0.1710   -2.7050 c         1 MOL      0.534032
     54 N6          2.4380   -0.7360   -3.7600 n         1 MOL     -0.633906
     55 O11         1.8610   -0.8200   -1.6790 o         1 MOL     -0.519388
     56 H20         3.8120    0.9630   -1.5350 hn        1 MOL      0.189600
     57 H21         3.0820    1.6950   -4.1780 h1        1 MOL      0.129794
     58 H22         0.8680    1.6450   -3.3430 hc        1 MOL      0.124027
     59 H23         1.4590    1.7180   -1.6920 hc        1 MOL      0.124027
     60 H24         2.4190   -0.2070   -4.6260 hn        1 MOL      0.321194
     61 H25         2.8160   -1.6450   -3.5630 hn        1 MOL      0.321194
     62 N7          2.9820    4.3790   -2.2330 n         1 MOL     -0.146387
     63 C20         2.8160    5.8530   -2.2630 c3        1 MOL     -0.262957
     64 C21         1.3690    6.2530   -1.9590 c         1 MOL      0.501060
     65 O12         0.4160    6.0320   -2.7370 o         1 MOL     -0.487528
     66 H26         3.3720    3.9200   -1.4220 hn        1 MOL      0.210351
     67 H27         3.1640    6.1750   -3.2410 h1        1 MOL      0.110767
     68 H28         3.4300    6.3160   -1.4970 h1        1 MOL      0.110767
     69 N8          1.1860    6.9480   -0.8830 n         1 MOL     -0.235518
     70 C22        -0.0800    7.6330   -0.4330 c3        1 MOL     -0.474162
     71 C23        -1.0410    6.7360    0.2910 c         1 MOL      0.567744
     72 O13        -2.1630    7.1460    0.6040 o         1 MOL     -0.582336
     73 C24         0.2290    8.9780    0.3650 c3        1 MOL      0.514749
     74 C25         0.9630    8.6590    1.6890 c3        1 MOL     -0.230004
     75 O14         0.9690    9.8080   -0.3840 oh        1 MOL     -0.618412
     76 H29         1.9600    7.0230   -0.2330 hn        1 MOL      0.260576
     77 H30        -0.6370    8.0270   -1.2870 h1        1 MOL      0.219110
     78 H31        -0.6340    9.5510    0.6820 h1        1 MOL      0.028705
     79 H32         1.9100    9.6210   -0.3070 ho        1 MOL      0.373330
     80 H33         0.3760    7.9960    2.3160 hc        1 MOL      0.037947
     81 H34         1.9530    8.2410    1.5110 hc        1 MOL      0.037947
     82 H35         1.0950    9.6680    2.0890 hc        1 MOL      0.037947
     83 N9         -0.6870    5.4330    0.4130 n         1 MOL     -0.044714
     84 C26        -1.5630    4.3990    1.0150 c3        1 MOL     -0.286143
     85 C27        -1.6100    3.1760    0.0510 c         1 MOL      0.498001
     86 O15        -0.6970    2.9400   -0.7080 o         1 MOL     -0.462510
     87 C28        -1.0630    3.9370    2.5080 c3        1 MOL      0.134485
     88 C29         0.4710    3.6790    2.5290 c3        1 MOL      0.119914
     89 C30        -1.4590    5.0670    3.4780 c3        1 MOL     -0.380876
     90 C31         1.0070    2.9050    3.7750 c3        1 MOL     -0.374035
     91 H36         0.2610    5.2600    0.1220 hn        1 MOL      0.058129
     92 H37        -2.5870    4.7720    1.0560 h1        1 MOL      0.149082
     93 H38        -1.4590    3.0080    2.9270 hc        1 MOL      0.040073
     94 H39         1.0160    4.6230    2.5660 hc        1 MOL      0.017747
     95 H40         0.8820    3.0520    1.7370 hc        1 MOL      0.017747
     96 H41        -2.5510    5.1410    3.5720 hc        1 MOL      0.092466
     97 H42        -1.0270    4.8590    4.4530 hc        1 MOL      0.092466
     98 H43        -1.0730    6.0480    3.2080 hc        1 MOL      0.092466
     99 H44         2.0860    2.9030    3.6570 hc        1 MOL      0.101089
    100 H45         0.5450    3.3810    4.6510 hc        1 MOL      0.101089
    101 H46         0.6920    1.8620    3.8060 hc        1 MOL      0.101089
    102 N10        -2.4770    2.1840    0.2270 n         1 MOL     -0.498936
    103 C32        -2.5770    0.8760   -0.4490 c3        1 MOL      0.242954
    104 C33        -3.9370    0.2030   -0.5160 c         1 MOL      0.392125
    105 O16        -4.0030   -1.0110   -0.4730 o         1 MOL     -0.403197
    106 C34        -1.6330    0.0390    0.4140 c3        1 MOL     -0.187566
    107 C35        -0.9690   -1.1000   -0.4690 c         1 MOL      0.730461
    108 O17        -0.1570   -1.8320    0.1110 o         1 MOL     -0.733871
    109 O18        -1.0400   -1.3140   -1.6950 o         1 MOL     -0.733871
    110 H47        -3.2760    2.3400    0.8260 hn        1 MOL      0.246558
    111 H48        -2.1870    0.9800   -1.4550 h1        1 MOL      0.049294
    112 H49        -2.1140   -0.2670    1.3440 hc        1 MOL      0.058635
    113 H50        -0.8060    0.6540    0.7700 hc        1 MOL      0.058635
    114 N11        -5.0560    0.9800   -0.5580 n         1 MOL     -0.496166
    115 C36        -6.4490    0.5130   -0.7400 c3        1 MOL      0.321069
    116 C37        -6.8560   -0.5340    0.3930 c         1 MOL      0.256806
    117 O19        -6.7320   -0.2830    1.5640 o         1 MOL     -0.455221
    118 C38        -7.4720    1.7010   -0.8560 c3        1 MOL     -0.349974
    119 C39        -8.9050    1.3080   -0.9860 ca        1 MOL      0.103617
    120 C40        -9.3920    1.1310   -2.2770 ca        1 MOL     -0.126442
    121 C41        -9.7710    1.0850    0.0770 ca        1 MOL     -0.126442
    122 C42       -10.6500    0.7270   -2.5560 ca        1 MOL     -0.156790
    123 C43       -11.0700    0.5650   -0.1630 ca        1 MOL     -0.156790
    124 C44       -11.4750    0.3040   -1.5080 ca        1 MOL     -0.064924
    125 H51        -4.9370    1.9830   -0.4410 hn        1 MOL      0.252988
    126 H52        -6.5410    0.0160   -1.7070 h1        1 MOL      0.004193
    127 H53        -7.2420    2.3220   -1.7300 hc        1 MOL      0.123845
    128 H54        -7.5060    2.2520    0.0800 hc        1 MOL      0.123845
    129 H55        -8.6870    1.3610   -3.0660 ha        1 MOL      0.117015
    130 H56        -9.4000    1.1950    1.0880 ha        1 MOL      0.117015
    131 H57       -10.9550    0.5790   -3.5880 ha        1 MOL      0.118903
    132 H58       -11.7470    0.2940    0.6360 ha        1 MOL      0.118903
    133 H59       -12.4600   -0.0830   -1.6750 ha        1 MOL      0.093947
    134 N12        -7.3070   -1.7250   -0.0150 n         1 MOL     -0.015189
    135 C45        -7.6730   -2.7140    0.9800 c3        1 MOL      0.016960
    136 C46        -6.6500   -3.2050    1.9850 c         1 MOL      0.228840
    137 O20        -7.0310   -3.8520    2.9880 o         1 MOL     -0.495724
    138 C47        -8.1910   -3.9560    0.1600 c3        1 MOL     -0.028030
    139 C48        -8.6930   -3.3090   -1.1150 c3        1 MOL     -0.161403
    140 C49        -7.6120   -2.1820   -1.3210 c3        1 MOL      0.051528
    141 H60        -8.4750   -2.2750    1.5720 h1        1 MOL      0.079281
    142 H61        -7.3990   -4.6590   -0.0750 hc        1 MOL      0.058090
    143 H62        -8.9890   -4.4960    0.6850 hc        1 MOL      0.058090
    144 H63        -8.6390   -4.0360   -1.9240 hc        1 MOL      0.049040
    145 H64        -9.6790   -2.8420   -1.0950 hc        1 MOL      0.049040
    146 H65        -6.7550   -2.5990   -1.8370 h1        1 MOL      0.031601
    147 H66        -8.0290   -1.3650   -1.9190 h1        1 MOL      0.031601
    148 N13        -5.3250   -2.9780    1.7420 n         1 MOL     -0.103522
    149 C50        -4.2690   -3.3910    2.5990 c3        1 MOL      0.033290
    150 C51        -4.0760   -2.4190    3.8110 c         1 MOL      0.308246
    151 O21        -3.5160   -2.8040    4.8420 o         1 MOL     -0.520541
    152 C52        -2.9290   -3.5470    1.8590 c3        1 MOL      0.122125
    153 C53        -2.9600   -4.7460    0.8710 c3        1 MOL     -0.328538
    154 C54        -1.7890   -4.6730   -0.1050 c         1 MOL      0.808777
    155 O22        -0.6200   -4.7650    0.3520 o         1 MOL     -0.771632
    156 O23        -1.9140   -4.5050   -1.3270 o         1 MOL     -0.771632
    157 H67        -5.0510   -2.4260    0.9420 hn        1 MOL      0.146228
    158 H68        -4.5100   -4.3540    3.0570 h1        1 MOL      0.080551
    159 H69        -2.0990   -3.8530    2.4950 hc        1 MOL      0.002421
    160 H70        -2.6350   -2.6600    1.2890 hc        1 MOL      0.002421
    161 H71        -3.9300   -4.7710    0.3810 hc        1 MOL      0.052815
    162 H72        -2.8580   -5.6190    1.5070 hc        1 MOL      0.052815
    163 N14        -4.5730   -1.1560    3.6830 n         1 MOL     -0.054003
    164 C55        -4.5850   -0.0870    4.6670 c3        1 MOL     -0.197644
    165 H73        -4.2100   -0.4650    5.6170 h1        1 MOL      0.079223
    166 H74        -3.9500    0.7300    4.3250 h1        1 MOL      0.079223
    167 H75        -5.6050    0.2750    4.7970 h1        1 MOL      0.079223
    168 H76        -5.0960   -0.9650    2.8420 hn        1 MOL      0.140295
    169 Ca1         0.6800   -3.4980   -1.7370 Ca        1 MOL      1.727172
    170 O24         0.3620   -6.1440   -3.0150 oh        1 MOL     -0.824980
    171 H77        -0.3890   -6.7090   -3.1950 ho        1 MOL      0.405333
    172 H78         1.0930   -6.5600   -3.4650 ho        1 MOL      0.405333
    173 O25        -0.4380   -3.3230   -4.2020 oh        1 MOL     -0.824980
    174 H79        -0.6830   -2.5140   -4.6500 ho        1 MOL      0.405333
    175 H80        -0.6820   -4.0150   -4.8130 ho        1 MOL      0.405333
    176 O26         2.3670   -2.9860    0.5750 oh        1 MOL     -0.824980
    177 H81         1.5460   -2.4880    0.5930 ho        1 MOL      0.405333
    178 H82         2.2210   -3.7160    1.1850 ho        1 MOL      0.405333
    179 O27         2.4200   -5.4360   -0.9810 oh        1 MOL     -0.824980
    180 H83         2.9860   -5.1050   -0.2930 ho        1 MOL      0.405333
    181 H84         2.6150   -6.3760   -1.0340 ho        1 MOL      0.405333
@<TRIPOS>BOND
     1    1    2 1   
     2    1    4 1   
     3    1    5 1   
     4    1    6 1   
     5    2    3 2   
     6    2    7 1   
     7    7    8 1   
     8    7   15 1   
     9    8    9 1   
    10    8   11 1   
    11    8   16 1   
    12    9   10 2   
    13    9   19 1   
    14   11   12 1   
    15   11   17 1   
    16   11   18 1   
    17   12   13 1   
    18   12   14 1   
    19   19   20 1   
    20   19   24 1   
    21   20   21 1   
    22   20   23 1   
    23   20   25 1   
    24   21   22 2   
    25   21   29 1   
    26   23   26 1   
    27   23   27 1   
    28   23   28 1   
    29   29   30 1   
    30   29   37 1   
    31   30   31 1   
    32   30   33 1   
    33   30   38 1   
    34   31   32 2   
    35   31   41 1   
    36   33   34 1   
    37   33   39 1   
    38   33   40 1   
    39   34   35 1   
    40   34   36 1   
    41   41   42 1   
    42   41   45 1   
    43   42   43 1   
    44   42   46 1   
    45   42   47 1   
    46   43   44 2   
    47   43   48 1   
    48   48   49 1   
    49   48   56 1   
    50   49   50 1   
    51   49   52 1   
    52   49   57 1   
    53   50   51 2   
    54   50   62 1   
    55   52   53 1   
    56   52   58 1   
    57   52   59 1   
    58   53   54 1   
    59   53   55 2   
    60   54   60 1   
    61   54   61 1   
    62   62   63 1   
    63   62   66 1   
    64   63   64 1   
    65   63   67 1   
    66   63   68 1   
    67   64   65 2   
    68   64   69 1   
    69   69   70 1   
    70   69   76 1   
    71   70   71 1   
    72   70   73 1   
    73   70   77 1   
    74   71   72 2   
    75   71   83 1   
    76   73   74 1   
    77   73   75 1   
    78   73   78 1   
    79   74   80 1   
    80   74   81 1   
    81   74   82 1   
    82   75   79 1   
    83   83   84 1   
    84   83   91 1   
    85   84   85 1   
    86   84   87 1   
    87   84   92 1   
    88   85   86 2   
    89   85  102 1   
    90   87   88 1   
    91   87   89 1   
    92   87   93 1   
    93   88   90 1   
    94   88   94 1   
    95   88   95 1   
    96   89   96 1   
    97   89   97 1   
    98   89   98 1   
    99   90   99 1   
   100   90  100 1   
   101   90  101 1   
   102  102  103 1   
   103  102  110 1   
   104  103  104 1   
   105  103  106 1   
   106  103  111 1   
   107  104  105 2   
   108  104  114 1   
   109  106  107 1   
   110  106  112 1   
   111  106  113 1   
   112  107  108 1   
   113  107  109 1   
   114  114  115 1   
   115  114  125 1   
   116  115  116 1   
   117  115  118 1   
   118  115  126 1   
   119  116  117 2   
   120  116  134 1   
   121  118  119 1   
   122  118  127 1   
   123  118  128 1   
   124  119  120 ar  
   125  119  121 ar  
   126  120  122 ar  
   127  120  129 1   
   128  121  123 ar  
   129  121  130 1   
   130  122  124 ar  
   131  122  131 1   
   132  123  124 ar  
   133  123  132 1   
   134  124  133 1   
   135  134  135 1   
   136  134  140 1   
   137  135  136 1   
   138  135  138 1   
   139  135  141 1   
   140  136  137 2   
   141  136  148 1   
   142  138  139 1   
   143  138  142 1   
   144  138  143 1   
   145  139  140 1   
   146  139  144 1   
   147  139  145 1   
   148  140  146 1   
   149  140  147 1   
   150  148  149 1   
   151  148  157 1   
   152  149  150 1   
   153  149  152 1   
   154  149  158 1   
   155  150  151 2   
   156  150  163 1   
   157  152  153 1   
   158  152  159 1   
   159  152  160 1   
   160  153  154 1   
   161  153  161 1   
   162  153  162 1   
   163  154  155 1   
   164  154  156 1   
   165  163  164 1   
   166  163  168 1   
   167  164  165 1   
   168  164  166 1   
   169  164  167 1   
   170  170  171 1   
   171  170  172 1   
   172  173  174 1   
   173  173  175 1   
   174  176  177 1   
   175  176  178 1   
   176  179  180 1   
   177  179  181 1   
@<TRIPOS>SUBSTRUCTURE
     1 MOL         1 TEMP              0 ****  ****    0 ROOT
