@<TRIPOS>MOLECULE
MOL
  192   187     1     0     0
SMALL
resp


@<TRIPOS>ATOM
      1 C1          9.4940    1.3510    1.2840 c3        1 MOL     -0.528201
      2 C2          8.3120    0.7680    0.5750 c         1 MOL      0.725791
      3 O1          7.3230    0.4520    1.2210 o         1 MOL     -0.668198
      4 H1          9.7360    2.3210    0.8490 hc        1 MOL      0.136693
      5 H2          9.2590    1.4760    2.3410 hc        1 MOL      0.136693
      6 H3         10.3480    0.6830    1.1780 hc        1 MOL      0.136693
      7 N1          8.4190    0.5550   -0.7640 n         1 MOL     -0.545351
      8 C3          7.4080    0.0350   -1.6920 c3        1 MOL      0.042823
      9 C4          7.0870   -1.5270   -1.4660 c         1 MOL      0.425458
     10 O2          7.2350   -2.3050   -2.4420 o         1 MOL     -0.437083
     11 C5          7.7460    0.4490   -3.1420 c3        1 MOL     -0.352844
     12 C6          9.1520   -0.0020   -3.6660 c         1 MOL      0.815905
     13 O3          9.4980    0.3630   -4.7870 o         1 MOL     -0.675013
     14 O4          9.9010   -0.6350   -2.9060 o         1 MOL     -0.675013
     15 H4          9.3060    0.8070   -1.1780 hn        1 MOL      0.301219
     16 H5          6.5470    0.6170   -1.3390 h1        1 MOL      0.110044
     17 H6          7.7000    1.5420   -3.1250 hc        1 MOL      0.100763
     18 H7          7.0790   -0.0240   -3.8500 hc        1 MOL      0.100763
     19 N2          6.7280   -1.9440   -0.2220 n         1 MOL     -0.242350
     20 C7          6.4450   -3.3420    0.1710 c3        1 MOL     -0.003782
     21 C8          4.9750   -3.6630   -0.0360 c         1 MOL      0.512933
     22 O5          4.6920   -4.8020   -0.4060 o         1 MOL     -0.532495
     23 C9          6.9040   -3.7110    1.6460 c3        1 MOL      0.055121
     24 C10         8.2010   -3.3150    2.0510 c3        1 MOL      0.032768
     25 C11         8.6130   -3.5190    3.5170 c3        1 MOL      0.010682
     26 C12        10.1120   -3.1310    3.6890 c3        1 MOL     -0.011187
     27 N3         10.3750   -2.9060    5.1580 n4        1 MOL     -0.209915
     28 H8          6.9310   -1.3430    0.5630 hn        1 MOL      0.222830
     29 H9          7.0700   -3.9730   -0.4680 h1        1 MOL      0.073945
     30 H10         6.8580   -4.8070    1.6890 hc        1 MOL     -0.004255
     31 H11         6.2030   -3.4010    2.4200 hc        1 MOL     -0.004255
     32 H12         8.1640   -2.2740    1.7240 hc        1 MOL     -0.002914
     33 H13         8.9710   -3.7950    1.4510 hc        1 MOL     -0.002914
     34 H14         8.4630   -4.5640    3.8070 hc        1 MOL      0.015568
     35 H15         8.0250   -2.8560    4.1500 hc        1 MOL      0.015568
     36 H16        10.4030   -2.2290    3.1470 hx        1 MOL      0.098607
     37 H17        10.6350   -3.9970    3.2840 hx        1 MOL      0.098607
     38 H18        10.1620   -3.6800    5.7790 hn        1 MOL      0.243545
     39 H19        11.3150   -2.6220    5.4040 hn        1 MOL      0.243545
     40 H20         9.7290   -2.1900    5.4260 hn        1 MOL      0.243545
     41 N4          3.9930   -2.7620    0.2540 n         1 MOL     -0.417163
     42 C13         4.0920   -1.4520    0.9090 c3        1 MOL      0.059259
     43 C14         4.0250   -0.3300   -0.2160 c         1 MOL      0.159570
     44 O6          3.6830   -0.6310   -1.3860 o         1 MOL     -0.391213
     45 C15         3.0070   -1.1980    1.9200 c3        1 MOL     -0.227037
     46 C16         1.6410   -1.4180    1.3720 c         1 MOL      0.622131
     47 O7          1.1020   -0.5260    0.6480 o         1 MOL     -0.642692
     48 O8          1.0540   -2.4740    1.6750 o         1 MOL     -0.642692
     49 H21         3.0530   -3.0700    0.0410 hn        1 MOL      0.318755
     50 H22         5.0490   -1.3780    1.4380 h1        1 MOL      0.114045
     51 H23         3.0130   -0.1440    2.1920 hc        1 MOL      0.043344
     52 H24         3.1170   -1.7210    2.8640 hc        1 MOL      0.043344
     53 N5          4.4110    0.9140    0.1150 n         1 MOL     -0.107750
     54 C17         4.3090    2.0960   -0.7100 c3        1 MOL     -0.232989
     55 C18         2.8860    2.5510   -1.1370 c         1 MOL      0.536150
     56 O9          1.8140    2.1450   -0.7130 o         1 MOL     -0.476845
     57 H25         4.6970    0.9990    1.0690 hn        1 MOL      0.240392
     58 H26         4.8390    1.8480   -1.6280 h1        1 MOL      0.118448
     59 H27         4.8890    2.8290   -0.1540 h1        1 MOL      0.118448
     60 N6          2.9180    3.5910   -1.9550 n         1 MOL     -0.558565
     61 C19         1.6890    4.2280   -2.5720 c3        1 MOL      0.476604
     62 C20         1.8840    5.7320   -2.8880 c         1 MOL      0.264428
     63 O10         3.0730    6.2280   -2.9800 o         1 MOL     -0.507607
     64 C21         1.3020    3.4480   -3.8860 c3        1 MOL     -0.247853
     65 C22         0.6450    2.1340   -3.5670 c         1 MOL      0.759167
     66 O11        -0.3350    2.2160   -2.8470 o         1 MOL     -0.700096
     67 O12         0.9820    1.0550   -4.0910 o         1 MOL     -0.700096
     68 H28         3.7810    3.9610   -2.3170 hn        1 MOL      0.294121
     69 H29         0.9240    4.0290   -1.8210 h1        1 MOL     -0.028663
     70 H30         2.1570    3.2950   -4.5320 hc        1 MOL      0.051633
     71 H31         0.5120    4.0100   -4.3970 hc        1 MOL      0.051633
     72 N7          0.8150    6.5410   -3.0680 n         1 MOL     -0.347583
     73 C23        -0.5760    6.1660   -2.8730 c3        1 MOL     -0.167255
     74 C24        -0.8840    5.8710   -1.3600 c         1 MOL      0.692305
     75 O13        -0.1720    6.2790   -0.4890 o         1 MOL     -0.527292
     76 H32         1.0360    7.4940   -3.3210 hn        1 MOL      0.309176
     77 H33        -0.8470    5.3540   -3.5510 h1        1 MOL      0.097743
     78 H34        -1.2200    7.0280   -3.0770 h1        1 MOL      0.097743
     79 N8         -2.0140    5.1820   -1.1090 n         1 MOL     -0.708525
     80 C25        -2.4610    4.9400    0.3160 c3        1 MOL      0.097851
     81 C26        -1.7540    3.7190    0.8820 c         1 MOL      0.706740
     82 O14        -1.3200    2.8980    0.1220 o         1 MOL     -0.550526
     83 C27        -3.9580    4.8580    0.3390 c3        1 MOL      0.339514
     84 C28        -4.5770    4.6300    1.6870 c3        1 MOL     -0.279158
     85 O15        -4.3650    3.8400   -0.5180 oh        1 MOL     -0.616319
     86 H35        -2.6270    5.0370   -1.8910 hn        1 MOL      0.340714
     87 H36        -2.2000    5.8560    0.8420 h1        1 MOL      0.043298
     88 H37        -4.4390    5.7760   -0.0140 h1        1 MOL      0.002758
     89 H38        -5.2760    4.0410   -0.7500 ho        1 MOL      0.403185
     90 H39        -4.1430    3.8150    2.2630 hc        1 MOL      0.067606
     91 H40        -4.3730    5.4960    2.3140 hc        1 MOL      0.067606
     92 H41        -5.6620    4.6600    1.5880 hc        1 MOL      0.067606
     93 N9         -1.6590    3.6590    2.2130 n         1 MOL     -0.681808
     94 C29        -1.0340    2.5130    2.9630 c3        1 MOL      0.020278
     95 C30        -1.7080    1.1610    2.7230 c         1 MOL      0.897285
     96 O16        -1.6320    0.5500    1.6190 o         1 MOL     -0.681706
     97 C31         0.4990    2.4810    2.8320 c3        1 MOL      0.308378
     98 C32         1.1610    3.9310    2.7310 c3        1 MOL     -0.203119
     99 C33         1.1810    1.5950    3.9330 c3        1 MOL     -0.197794
    100 C34         1.1310    4.7760    4.0040 c3        1 MOL     -0.231611
    101 H42        -1.8700    4.4810    2.7500 hn        1 MOL      0.337728
    102 H43        -1.2220    2.7430    4.0070 h1        1 MOL      0.047822
    103 H44         0.7290    1.9880    1.8860 hc        1 MOL     -0.157999
    104 H45         0.7860    4.5460    1.9130 hc        1 MOL      0.114998
    105 H46         2.1990    3.8360    2.4120 hc        1 MOL      0.114998
    106 H47         0.7950    1.9470    4.8890 hc        1 MOL      0.046629
    107 H48         0.8460    0.5620    3.8400 hc        1 MOL      0.046629
    108 H49         2.2490    1.8030    3.9500 hc        1 MOL      0.046629
    109 H50         1.4700    4.1950    4.8550 hc        1 MOL      0.056817
    110 H51         1.8580    5.5850    3.9820 hc        1 MOL      0.056817
    111 H52         0.1290    5.0890    4.2970 hc        1 MOL      0.056817
    112 N10        -2.3890    0.6620    3.7110 n         1 MOL     -0.754046
    113 C35        -2.7940   -0.7360    3.8650 c3        1 MOL     -0.151644
    114 C36        -4.1360   -1.0630    3.1700 c         1 MOL      0.434225
    115 O17        -4.6720   -2.1850    3.2340 o         1 MOL     -0.553016
    116 C37        -2.9730   -0.9930    5.3200 c3        1 MOL      0.338652
    117 C38        -3.9840   -0.0960    6.0110 c3        1 MOL     -0.212650
    118 O18        -1.7090   -0.6490    5.8100 oh        1 MOL     -0.629141
    119 H53        -2.2170    1.1610    4.5710 hn        1 MOL      0.338078
    120 H54        -2.0030   -1.3710    3.4650 h1        1 MOL      0.191789
    121 H55        -3.1480   -2.0590    5.5240 h1        1 MOL      0.039864
    122 H56        -1.0180   -1.1810    5.4080 ho        1 MOL      0.406862
    123 H57        -3.7230    0.9590    5.9430 hc        1 MOL      0.072609
    124 H58        -4.9960   -0.1420    5.6030 hc        1 MOL      0.072609
    125 H59        -4.2330   -0.3140    7.0500 hc        1 MOL      0.072609
    126 N11        -4.7220   -0.0720    2.5010 n         1 MOL     -0.036868
    127 C39        -6.1230   -0.0290    1.9580 c3        1 MOL     -0.321932
    128 C40        -6.2530   -0.5280    0.5330 c         1 MOL      0.443935
    129 O19        -5.6940    0.1360   -0.3570 o         1 MOL     -0.456417
    130 C41        -6.8440    1.2620    2.1540 c3        1 MOL      0.482991
    131 C42        -8.3530    1.1350    1.9710 c3        1 MOL     -0.206717
    132 O20        -6.4840    1.7340    3.4160 oh        1 MOL     -0.656262
    133 H60        -4.1850    0.7710    2.3890 hn        1 MOL      0.210350
    134 H61        -6.5230   -0.8320    2.5750 h1        1 MOL      0.096806
    135 H62        -6.4770    1.9680    1.4180 h1        1 MOL     -0.007004
    136 H63        -7.0740    1.2630    4.0180 ho        1 MOL      0.403156
    137 H64        -8.6040    0.7640    0.9780 hc        1 MOL      0.041079
    138 H65        -8.8180    0.4240    2.6560 hc        1 MOL      0.041079
    139 H66        -8.7990    2.1210    2.1230 hc        1 MOL      0.041079
    140 N12        -6.8440   -1.7290    0.2840 n         1 MOL     -0.273192
    141 C43        -6.8640   -2.5640   -0.9250 c3        1 MOL      0.073550
    142 C44        -5.4690   -2.7830   -1.5270 c         1 MOL      0.511593
    143 O21        -5.1840   -2.2070   -2.5910 o         1 MOL     -0.490262
    144 C45        -7.8830   -2.0740   -1.9460 c3        1 MOL     -0.340955
    145 C46        -9.3440   -2.1380   -1.3500 c3        1 MOL      0.204631
    146 C47       -10.3680   -1.7090   -2.3880 c3        1 MOL     -0.112591
    147 C48       -11.7270   -1.7940   -1.6930 c3        1 MOL      0.101515
    148 N13       -12.8850   -1.2000   -2.4090 n4        1 MOL     -0.204271
    149 H67        -7.3560   -2.1300    1.0610 hn        1 MOL      0.223348
    150 H68        -7.1720   -3.5550   -0.6050 h1        1 MOL      0.029359
    151 H69        -7.7600   -2.6800   -2.8390 hc        1 MOL      0.119561
    152 H70        -7.5150   -1.0570   -2.1090 hc        1 MOL      0.119561
    153 H71        -9.4500   -1.4920   -0.4720 hc        1 MOL     -0.021728
    154 H72        -9.5830   -3.1470   -1.0170 hc        1 MOL     -0.021728
    155 H73       -10.3560   -2.4330   -3.2040 hc        1 MOL      0.059624
    156 H74       -10.1340   -0.7210   -2.7680 hc        1 MOL      0.059624
    157 H75       -11.7230   -1.3490   -0.6970 hx        1 MOL      0.041207
    158 H76       -11.9310   -2.8420   -1.4920 hx        1 MOL      0.041207
    159 H77       -12.5830   -0.2960   -2.7360 hn        1 MOL      0.199976
    160 H78       -13.1090   -1.6430   -3.2960 hn        1 MOL      0.199976
    161 H79       -13.7120   -1.1410   -1.8260 hn        1 MOL      0.199976
    162 N14        -4.5100   -3.4440   -0.8320 n         1 MOL     -0.460533
    163 C49        -3.1690   -3.5940   -1.1850 c3        1 MOL      0.447454
    164 C50        -2.1160   -2.8050   -0.3070 c         1 MOL      0.173020
    165 O22        -1.7910   -1.6770   -0.6320 o         1 MOL     -0.461388
    166 C51        -2.8930   -5.0930   -1.6040 c3        1 MOL     -0.346745
    167 C52        -3.1690   -5.3120   -3.0450 c3        1 MOL     -0.186088
    168 C53        -2.9210   -6.7350   -3.4720 c         1 MOL      0.722495
    169 O23        -1.9960   -6.9490   -4.3100 o         1 MOL     -0.624979
    170 O24        -3.5330   -7.6500   -2.9470 o         1 MOL     -0.624979
    171 H80        -4.7800   -3.8070    0.0680 hn        1 MOL      0.246190
    172 H81        -3.1170   -3.0460   -2.1400 h1        1 MOL      0.063881
    173 H82        -3.4580   -5.8180   -1.0240 hc        1 MOL      0.110241
    174 H83        -1.8820   -5.4540   -1.4100 hc        1 MOL      0.110241
    175 H84        -2.5640   -4.5780   -3.5760 hc        1 MOL      0.039150
    176 H85        -4.1810   -4.9970   -3.3070 hc        1 MOL      0.039150
    177 N15        -1.4410   -3.3570    0.7030 n         1 MOL     -0.224353
    178 C54        -1.6130   -4.6740    1.2850 c3        1 MOL      0.077060
    179 H86        -2.4270   -5.1910    0.7770 h1        1 MOL      0.003067
    180 H87        -0.6910   -5.2450    1.1700 h1        1 MOL      0.003067
    181 H88        -1.8510   -4.5770    2.3440 h1        1 MOL      0.003067
    182 H89        -0.7260   -2.8070    1.1600 hn        1 MOL      0.280083
    183 Ca1        -0.5210    0.6060   -0.9380 Ca        1 MOL      1.777873
    184 O25        -1.4270   -0.3250   -3.4050 oh        1 MOL     -0.871156
    185 H90        -1.4220   -1.2470   -3.6580 ho        1 MOL      0.409152
    186 H91        -0.7180    0.0700   -3.9240 ho        1 MOL      0.409152
    187 O26        -3.1940    0.9620   -1.0780 oh        1 MOL     -0.871156
    188 H92        -3.5460    1.8260   -0.8280 ho        1 MOL      0.409152
    189 H93        -3.9100    0.3600   -0.9030 ho        1 MOL      0.409152
    190 O27         1.1030   -1.3120   -2.2570 oh        1 MOL     -0.871156
    191 H94         2.0480   -1.2030   -2.1410 ho        1 MOL      0.409152
    192 H95         1.0080   -2.2120   -2.5860 ho        1 MOL      0.409152
@<TRIPOS>BOND
     1    1    2 1   
     2    1    4 1   
     3    1    5 1   
     4    1    6 1   
     5    2    3 2   
     6    2    7 1   
     7    7    8 1   
     8    7   15 1   
     9    8    9 1   
    10    8   11 1   
    11    8   16 1   
    12    9   10 2   
    13    9   19 1   
    14   11   12 1   
    15   11   17 1   
    16   11   18 1   
    17   12   13 1   
    18   12   14 1   
    19   19   20 1   
    20   19   28 1   
    21   20   21 1   
    22   20   23 1   
    23   20   29 1   
    24   21   22 2   
    25   21   41 1   
    26   23   24 1   
    27   23   30 1   
    28   23   31 1   
    29   24   25 1   
    30   24   32 1   
    31   24   33 1   
    32   25   26 1   
    33   25   34 1   
    34   25   35 1   
    35   26   27 1   
    36   26   36 1   
    37   26   37 1   
    38   27   38 1   
    39   27   39 1   
    40   27   40 1   
    41   41   42 1   
    42   41   49 1   
    43   42   43 1   
    44   42   45 1   
    45   42   50 1   
    46   43   44 2   
    47   43   53 1   
    48   45   46 1   
    49   45   51 1   
    50   45   52 1   
    51   46   47 1   
    52   46   48 1   
    53   53   54 1   
    54   53   57 1   
    55   54   55 1   
    56   54   58 1   
    57   54   59 1   
    58   55   56 2   
    59   55   60 1   
    60   60   61 1   
    61   60   68 1   
    62   61   62 1   
    63   61   64 1   
    64   61   69 1   
    65   62   63 2   
    66   62   72 1   
    67   64   65 1   
    68   64   70 1   
    69   64   71 1   
    70   65   66 1   
    71   65   67 1   
    72   72   73 1   
    73   72   76 1   
    74   73   74 1   
    75   73   77 1   
    76   73   78 1   
    77   74   75 2   
    78   74   79 1   
    79   79   80 1   
    80   79   86 1   
    81   80   81 1   
    82   80   83 1   
    83   80   87 1   
    84   81   82 2   
    85   81   93 1   
    86   83   84 1   
    87   83   85 1   
    88   83   88 1   
    89   84   90 1   
    90   84   91 1   
    91   84   92 1   
    92   85   89 1   
    93   93   94 1   
    94   93  101 1   
    95   94   95 1   
    96   94   97 1   
    97   94  102 1   
    98   95   96 2   
    99   95  112 1   
   100   97   98 1   
   101   97   99 1   
   102   97  103 1   
   103   98  100 1   
   104   98  104 1   
   105   98  105 1   
   106   99  106 1   
   107   99  107 1   
   108   99  108 1   
   109  100  109 1   
   110  100  110 1   
   111  100  111 1   
   112  112  113 1   
   113  112  119 1   
   114  113  114 1   
   115  113  116 1   
   116  113  120 1   
   117  114  115 2   
   118  114  126 1   
   119  116  117 1   
   120  116  118 1   
   121  116  121 1   
   122  117  123 1   
   123  117  124 1   
   124  117  125 1   
   125  118  122 1   
   126  126  127 1   
   127  126  133 1   
   128  127  128 1   
   129  127  130 1   
   130  127  134 1   
   131  128  129 2   
   132  128  140 1   
   133  130  131 1   
   134  130  132 1   
   135  130  135 1   
   136  131  137 1   
   137  131  138 1   
   138  131  139 1   
   139  132  136 1   
   140  140  141 1   
   141  140  149 1   
   142  141  142 1   
   143  141  144 1   
   144  141  150 1   
   145  142  143 2   
   146  142  162 1   
   147  144  145 1   
   148  144  151 1   
   149  144  152 1   
   150  145  146 1   
   151  145  153 1   
   152  145  154 1   
   153  146  147 1   
   154  146  155 1   
   155  146  156 1   
   156  147  148 1   
   157  147  157 1   
   158  147  158 1   
   159  148  159 1   
   160  148  160 1   
   161  148  161 1   
   162  162  163 1   
   163  162  171 1   
   164  163  164 1   
   165  163  166 1   
   166  163  172 1   
   167  164  165 2   
   168  164  177 1   
   169  166  167 1   
   170  166  173 1   
   171  166  174 1   
   172  167  168 1   
   173  167  175 1   
   174  167  176 1   
   175  168  169 1   
   176  168  170 1   
   177  177  178 1   
   178  177  182 1   
   179  178  179 1   
   180  178  180 1   
   181  178  181 1   
   182  184  185 1   
   183  184  186 1   
   184  187  188 1   
   185  187  189 1   
   186  190  191 1   
   187  190  192 1   
@<TRIPOS>SUBSTRUCTURE
     1 MOL         1 TEMP              0 ****  ****    0 ROOT
