@<TRIPOS>MOLECULE
MOL
  178   175     1     0     0
SMALL
resp


@<TRIPOS>ATOM
      1 C1          0.8950    6.7690   -2.4250 c3        1 MOL     -0.361322
      2 C2          2.1720    6.3070   -1.6980 c         1 MOL      0.865586
      3 O1          2.3340    6.6740   -0.5520 o         1 MOL     -0.623744
      4 H1          0.1990    5.9340   -2.5010 hc        1 MOL      0.079365
      5 H2          0.4300    7.5790   -1.8640 hc        1 MOL      0.079365
      6 H3          1.1530    7.1200   -3.4240 hc        1 MOL      0.079365
      7 N1          3.0820    5.6400   -2.4240 n         1 MOL     -0.950007
      8 C3          4.3210    5.0650   -1.8290 c3        1 MOL      0.743466
      9 C4          4.1600    4.0170   -0.7290 c         1 MOL      0.301325
     10 O2          3.5270    2.9700   -0.8500 o         1 MOL     -0.526185
     11 C5          5.3000    4.6870   -2.9810 c3        1 MOL     -0.357576
     12 C6          6.6340    4.0100   -2.6510 c         1 MOL      0.786054
     13 O3          7.3500    3.5550   -3.5760 o         1 MOL     -0.745991
     14 O4          7.0870    4.0980   -1.5040 o         1 MOL     -0.745991
     15 H4          2.9050    5.4500   -3.3970 hn        1 MOL      0.386615
     16 H5          4.9110    5.8430   -1.3420 h1        1 MOL     -0.092061
     17 H6          5.5300    5.6670   -3.4090 hc        1 MOL      0.027362
     18 H7          4.6820    4.0840   -3.6430 hc        1 MOL      0.027362
     19 N2          5.0070    4.2430    0.3690 n         1 MOL     -0.369738
     20 C7          4.8640    3.4800    1.6520 c3        1 MOL      0.041078
     21 C8          3.4290    3.4510    2.2780 c         1 MOL      0.596348
     22 O5          2.6210    4.3440    2.1280 o         1 MOL     -0.534871
     23 C9          5.8860    4.0530    2.6130 c3        1 MOL     -0.645601
     24 H8          5.5640    5.0760    0.3690 hn        1 MOL      0.285220
     25 H9          4.9990    2.4320    1.4000 h1        1 MOL      0.226700
     26 H10         5.7350    5.1340    2.6850 hc        1 MOL      0.183023
     27 H11         5.8650    3.5710    3.5900 hc        1 MOL      0.183023
     28 H12         6.8280    3.9060    2.0830 hc        1 MOL      0.183023
     29 N3          3.1620    2.4080    3.0810 n         1 MOL     -0.384115
     30 C10         4.0310    1.2930    3.4700 c3        1 MOL     -0.016602
     31 C11         4.1390    0.2140    2.3640 c         1 MOL      0.246371
     32 O6          3.1870    0.0850    1.6170 o         1 MOL     -0.452342
     33 C12         3.6850    0.7340    4.8780 c3        1 MOL     -0.064671
     34 C13         2.1760    0.5020    4.9780 c         1 MOL      0.594258
     35 O7          1.7740   -0.3820    4.1760 o         1 MOL     -0.628883
     36 O8          1.4120    0.9130    5.9060 o         1 MOL     -0.628883
     37 H13         2.2070    2.3830    3.4280 hn        1 MOL      0.219930
     38 H14         5.0280    1.7340    3.5300 h1        1 MOL      0.047666
     39 H15         3.9940    1.4910    5.5960 hc        1 MOL      0.025633
     40 H16         4.2680   -0.1320    5.1850 hc        1 MOL      0.025633
     41 N4          5.2740   -0.4950    2.2680 n         1 MOL     -0.389756
     42 C14         5.7930   -1.4070    1.2320 c3        1 MOL      0.013149
     43 C15         6.6440   -0.6310    0.1830 c         1 MOL      0.639048
     44 O9          6.8290    0.5550    0.2790 o         1 MOL     -0.527074
     45 H17         5.9720   -0.2840    2.9740 hn        1 MOL      0.279934
     46 H18         4.9590   -1.9380    0.7660 h1        1 MOL      0.082174
     47 H19         6.4900   -2.1520    1.6280 h1        1 MOL      0.082174
     48 N5          7.1370   -1.3200   -0.8910 n         1 MOL     -0.568838
     49 C16         6.8990   -2.7030   -1.2360 c3        1 MOL      0.100973
     50 C17         5.8940   -3.0140   -2.3770 c         1 MOL      0.530047
     51 O10         5.7830   -4.1130   -2.7980 o         1 MOL     -0.497157
     52 C18         8.3000   -3.4520   -1.4950 c3        1 MOL     -0.242355
     53 C19         9.2050   -3.2250   -0.2660 c         1 MOL      0.615550
     54 N6         10.1970   -2.3400   -0.3880 n         1 MOL     -0.791695
     55 O11         8.9790   -3.8380    0.7990 o         1 MOL     -0.539568
     56 H20         7.6580   -0.7200   -1.5090 hn        1 MOL      0.315913
     57 H21         6.5030   -3.1800   -0.3440 h1        1 MOL      0.070860
     58 H22         8.7430   -3.0520   -2.4140 hc        1 MOL      0.082253
     59 H23         8.0800   -4.5070   -1.6420 hc        1 MOL      0.082253
     60 H24        10.5540   -2.0270   -1.2770 hn        1 MOL      0.371917
     61 H25        10.7280   -2.1010    0.4440 hn        1 MOL      0.371917
     62 N7          5.0550   -2.0220   -2.8370 n         1 MOL     -0.358948
     63 C20         4.0180   -2.3070   -3.8220 c3        1 MOL     -0.196463
     64 C21         2.8920   -3.1370   -3.2980 c         1 MOL      0.556236
     65 O12         2.2360   -3.8370   -4.0590 o         1 MOL     -0.569709
     66 H26         5.2570   -1.0640   -2.6160 hn        1 MOL      0.283680
     67 H27         4.4390   -2.8810   -4.6500 h1        1 MOL      0.124587
     68 H28         3.6280   -1.3910   -4.2650 h1        1 MOL      0.124587
     69 N8          2.6460   -3.2220   -1.9790 n         1 MOL     -0.222133
     70 C22         1.7100   -4.1640   -1.2600 c3        1 MOL     -0.362011
     71 C23         0.4600   -3.4520   -0.8250 c         1 MOL      0.837385
     72 O13         0.5160   -2.4010   -0.1690 o         1 MOL     -0.723405
     73 C24         2.3810   -4.8700   -0.1140 c3        1 MOL      0.327636
     74 C25         3.1300   -6.1140   -0.6450 c3        1 MOL     -0.386621
     75 O14         3.2620   -4.0170    0.5620 oh        1 MOL     -0.575397
     76 H29         3.2650   -2.7060   -1.3650 hn        1 MOL      0.183917
     77 H30         1.4930   -4.9610   -1.9680 h1        1 MOL      0.171499
     78 H31         1.6510   -5.1590    0.6490 h1        1 MOL      0.040714
     79 H32         2.7150   -3.3840    1.0450 ho        1 MOL      0.374087
     80 H33         3.8870   -5.8510   -1.3730 hc        1 MOL      0.109451
     81 H34         3.6790   -6.7810    0.0240 hc        1 MOL      0.109451
     82 H35         2.5030   -6.7780   -1.2520 hc        1 MOL      0.109451
     83 N9         -0.6740   -3.8710   -1.2630 n         1 MOL     -0.541057
     84 C26        -2.0030   -3.2740   -0.9700 c3        1 MOL     -0.084359
     85 C27        -2.6020   -3.6310    0.4030 c         1 MOL      0.508198
     86 O15        -2.7780   -4.8390    0.7540 o         1 MOL     -0.584815
     87 C28        -2.9530   -3.6590   -2.2260 c3        1 MOL      0.187890
     88 C29        -4.4470   -3.1400   -2.1320 c3        1 MOL      0.190394
     89 C30        -2.3690   -3.4620   -3.6900 c3        1 MOL     -0.234283
     90 C31        -5.2760   -3.5380   -3.4600 c3        1 MOL     -0.349573
     91 H36        -0.7070   -4.6240   -1.9270 hn        1 MOL      0.279163
     92 H37        -2.0220   -2.1950   -1.0640 h1        1 MOL      0.181315
     93 H38        -3.1310   -4.7300   -2.1240 hc        1 MOL     -0.040284
     94 H39        -4.4310   -2.0460   -2.0770 hc        1 MOL     -0.036404
     95 H40        -5.0110   -3.5550   -1.3000 hc        1 MOL     -0.036404
     96 H41        -2.9840   -4.0590   -4.3750 hc        1 MOL      0.059122
     97 H42        -2.4080   -2.4160   -4.0250 hc        1 MOL      0.059122
     98 H43        -1.3730   -3.8750   -3.8750 hc        1 MOL      0.059122
     99 H44        -6.3220   -3.4620   -3.1650 hc        1 MOL      0.069294
    100 H45        -5.0970   -2.9260   -4.3440 hc        1 MOL      0.069294
    101 H46        -5.1590   -4.6060   -3.6650 hc        1 MOL      0.069294
    102 N10        -3.0880   -2.6040    1.1030 n         1 MOL     -0.173878
    103 C32        -3.9190   -2.7330    2.3710 c3        1 MOL      0.001797
    104 C33        -5.1010   -1.7970    2.5160 c         1 MOL      0.477820
    105 O16        -5.7120   -1.8110    3.6370 o         1 MOL     -0.562145
    106 C34        -2.9360   -2.6600    3.5700 c3        1 MOL     -0.000157
    107 C35        -1.7070   -1.8720    3.4610 c         1 MOL      0.739376
    108 O17        -0.6960   -2.4470    3.1210 o         1 MOL     -0.781271
    109 O18        -1.6780   -0.6020    3.4950 o         1 MOL     -0.781271
    110 H47        -2.8230   -1.6800    0.8090 hn        1 MOL      0.169026
    111 H48        -4.3020   -3.7490    2.2690 h1        1 MOL      0.078082
    112 H49        -2.6140   -3.6830    3.7430 hc        1 MOL     -0.008941
    113 H50        -3.4890   -2.3500    4.4600 hc        1 MOL     -0.008941
    114 N11        -5.4250   -1.0600    1.4940 n         1 MOL     -0.552352
    115 C36        -6.6910   -0.1980    1.2980 c3        1 MOL      0.668455
    116 C37        -6.3080    1.1060    0.5490 c         1 MOL      0.158013
    117 O19        -6.8900    1.4800   -0.4820 o         1 MOL     -0.444519
    118 C38        -7.6200   -1.1090    0.4820 c3        1 MOL     -0.478465
    119 C39        -9.1040   -0.6390    0.2370 ca        1 MOL      0.132462
    120 C40        -9.9340   -1.3650   -0.6370 ca        1 MOL     -0.130954
    121 C41        -9.5810    0.4780    0.8970 ca        1 MOL     -0.130954
    122 C42       -11.2790   -1.0600   -0.6950 ca        1 MOL     -0.122977
    123 C43       -10.9430    0.7820    0.8290 ca        1 MOL     -0.122977
    124 C44       -11.8090   -0.0410    0.0180 ca        1 MOL     -0.140927
    125 H51        -4.8180   -1.0460    0.6900 hn        1 MOL      0.174610
    126 H52        -7.1150    0.0070    2.2760 h1        1 MOL     -0.049584
    127 H53        -7.7030   -2.0440    1.0300 hc        1 MOL      0.150228
    128 H54        -7.1860   -1.1300   -0.5100 hc        1 MOL      0.150228
    129 H55        -9.4110   -2.1760   -1.1230 ha        1 MOL      0.102359
    130 H56        -9.0400    1.0390    1.6450 ha        1 MOL      0.102359
    131 H57       -11.9480   -1.6550   -1.2980 ha        1 MOL      0.100770
    132 H58       -11.3010    1.6770    1.3270 ha        1 MOL      0.100770
    133 H59       -12.8640    0.1750   -0.0350 ha        1 MOL      0.099648
    134 N12        -5.3130    1.8460    1.1330 n         1 MOL     -0.060404
    135 C45        -5.0250    3.2520    0.6660 c3        1 MOL      0.033417
    136 C46        -4.7180    3.3660   -0.8430 c         1 MOL      0.150423
    137 O20        -4.9310    4.3490   -1.5270 o         1 MOL     -0.473289
    138 C47        -3.7220    3.6630    1.4330 c3        1 MOL     -0.229900
    139 C48        -4.1450    3.0510    2.8180 c3        1 MOL     -0.057761
    140 C49        -4.5990    1.6990    2.3800 c3        1 MOL     -0.091494
    141 H60        -5.8360    3.9180    0.9830 h1        1 MOL      0.106427
    142 H61        -2.8350    3.0940    1.1550 hc        1 MOL      0.117874
    143 H62        -3.6850    4.7350    1.6200 hc        1 MOL      0.117874
    144 H63        -3.3320    3.0110    3.5360 hc        1 MOL      0.041801
    145 H64        -5.0530    3.5650    3.1340 hc        1 MOL      0.041801
    146 H65        -3.7370    1.0500    2.2400 h1        1 MOL      0.091310
    147 H66        -5.2740    1.3630    3.1720 h1        1 MOL      0.091310
    148 N13        -4.1590    2.3390   -1.4520 n         1 MOL      0.050127
    149 C50        -3.7310    2.2710   -2.8530 c3        1 MOL     -0.225713
    150 C51        -4.9010    2.1580   -3.8520 c         1 MOL      0.474580
    151 O21        -4.9410    2.9750   -4.7490 o         1 MOL     -0.526236
    152 C52        -2.7790    1.0690   -2.9140 c3        1 MOL      0.102377
    153 C53        -1.7830    0.8670   -1.8360 c3        1 MOL      0.001814
    154 C54        -2.2920    0.1260   -0.5640 c         1 MOL      0.444222
    155 O22        -1.3680   -0.2330    0.2000 o         1 MOL     -0.584216
    156 O23        -3.5090   -0.2050   -0.3890 o         1 MOL     -0.584216
    157 H67        -4.0830    1.4940   -0.9200 hn        1 MOL      0.191045
    158 H68        -3.0790    3.1210   -3.0360 h1        1 MOL      0.126247
    159 H69        -2.1640    1.1290   -3.8060 hc        1 MOL     -0.043716
    160 H70        -3.3830    0.1640   -3.0360 hc        1 MOL     -0.043716
    161 H71        -1.4250    1.8620   -1.5640 hc        1 MOL      0.017098
    162 H72        -0.9120    0.3760   -2.2620 hc        1 MOL      0.017098
    163 N14        -5.9540    1.3500   -3.5350 n         1 MOL     -0.143034
    164 C55        -7.2090    1.2680   -4.2610 c3        1 MOL     -0.280816
    165 H73        -7.1550    0.4600   -4.9900 h1        1 MOL      0.101450
    166 H74        -8.0210    1.0700   -3.5620 h1        1 MOL      0.101450
    167 H75        -7.3940    2.2110   -4.7770 h1        1 MOL      0.101450
    168 H76        -5.9370    0.6610   -2.7990 hn        1 MOL      0.222654
    169 Ca1         0.4930   -0.4770    1.8420 Ca        1 MOL      1.786901
    170 O24        -0.0440    1.8860    2.9130 oh        1 MOL     -0.845357
    171 H77        -0.1470    1.7330    3.8550 ho        1 MOL      0.410701
    172 H78        -0.2550    2.8160    2.7980 ho        1 MOL      0.410701
    173 O25         1.0400    1.4580    0.0650 oh        1 MOL     -0.845357
    174 H79         0.6990    2.3390   -0.1010 ho        1 MOL      0.410701
    175 H80         1.9800    1.5410   -0.0820 ho        1 MOL      0.410701
    176 O26         2.0920   -2.4720    2.7360 oh        1 MOL     -0.845357
    177 H81         1.9270   -1.9880    3.5470 ho        1 MOL      0.410701
    178 H82         2.3150   -3.3510    3.0100 ho        1 MOL      0.410701
@<TRIPOS>BOND
     1    1    2 1   
     2    1    4 1   
     3    1    5 1   
     4    1    6 1   
     5    2    3 2   
     6    2    7 1   
     7    7    8 1   
     8    7   15 1   
     9    8    9 1   
    10    8   11 1   
    11    8   16 1   
    12    9   10 2   
    13    9   19 1   
    14   11   12 1   
    15   11   17 1   
    16   11   18 1   
    17   12   13 1   
    18   12   14 1   
    19   19   20 1   
    20   19   24 1   
    21   20   21 1   
    22   20   23 1   
    23   20   25 1   
    24   21   22 2   
    25   21   29 1   
    26   23   26 1   
    27   23   27 1   
    28   23   28 1   
    29   29   30 1   
    30   29   37 1   
    31   30   31 1   
    32   30   33 1   
    33   30   38 1   
    34   31   32 2   
    35   31   41 1   
    36   33   34 1   
    37   33   39 1   
    38   33   40 1   
    39   34   35 1   
    40   34   36 1   
    41   41   42 1   
    42   41   45 1   
    43   42   43 1   
    44   42   46 1   
    45   42   47 1   
    46   43   44 2   
    47   43   48 1   
    48   48   49 1   
    49   48   56 1   
    50   49   50 1   
    51   49   52 1   
    52   49   57 1   
    53   50   51 2   
    54   50   62 1   
    55   52   53 1   
    56   52   58 1   
    57   52   59 1   
    58   53   54 1   
    59   53   55 2   
    60   54   60 1   
    61   54   61 1   
    62   62   63 1   
    63   62   66 1   
    64   63   64 1   
    65   63   67 1   
    66   63   68 1   
    67   64   65 2   
    68   64   69 1   
    69   69   70 1   
    70   69   76 1   
    71   70   71 1   
    72   70   73 1   
    73   70   77 1   
    74   71   72 2   
    75   71   83 1   
    76   73   74 1   
    77   73   75 1   
    78   73   78 1   
    79   74   80 1   
    80   74   81 1   
    81   74   82 1   
    82   75   79 1   
    83   83   84 1   
    84   83   91 1   
    85   84   85 1   
    86   84   87 1   
    87   84   92 1   
    88   85   86 2   
    89   85  102 1   
    90   87   88 1   
    91   87   89 1   
    92   87   93 1   
    93   88   90 1   
    94   88   94 1   
    95   88   95 1   
    96   89   96 1   
    97   89   97 1   
    98   89   98 1   
    99   90   99 1   
   100   90  100 1   
   101   90  101 1   
   102  102  103 1   
   103  102  110 1   
   104  103  104 1   
   105  103  106 1   
   106  103  111 1   
   107  104  105 2   
   108  104  114 1   
   109  106  107 1   
   110  106  112 1   
   111  106  113 1   
   112  107  108 1   
   113  107  109 1   
   114  114  115 1   
   115  114  125 1   
   116  115  116 1   
   117  115  118 1   
   118  115  126 1   
   119  116  117 2   
   120  116  134 1   
   121  118  119 1   
   122  118  127 1   
   123  118  128 1   
   124  119  120 ar  
   125  119  121 ar  
   126  120  122 ar  
   127  120  129 1   
   128  121  123 ar  
   129  121  130 1   
   130  122  124 ar  
   131  122  131 1   
   132  123  124 ar  
   133  123  132 1   
   134  124  133 1   
   135  134  135 1   
   136  134  140 1   
   137  135  136 1   
   138  135  138 1   
   139  135  141 1   
   140  136  137 2   
   141  136  148 1   
   142  138  139 1   
   143  138  142 1   
   144  138  143 1   
   145  139  140 1   
   146  139  144 1   
   147  139  145 1   
   148  140  146 1   
   149  140  147 1   
   150  148  149 1   
   151  148  157 1   
   152  149  150 1   
   153  149  152 1   
   154  149  158 1   
   155  150  151 2   
   156  150  163 1   
   157  152  153 1   
   158  152  159 1   
   159  152  160 1   
   160  153  154 1   
   161  153  161 1   
   162  153  162 1   
   163  154  155 1   
   164  154  156 1   
   165  163  164 1   
   166  163  168 1   
   167  164  165 1   
   168  164  166 1   
   169  164  167 1   
   170  170  171 1   
   171  170  172 1   
   172  173  174 1   
   173  173  175 1   
   174  176  177 1   
   175  176  178 1   
@<TRIPOS>SUBSTRUCTURE
     1 MOL         1 TEMP              0 ****  ****    0 ROOT
