@<TRIPOS>MOLECULE
MOL
  192   187     1     0     0
SMALL
resp


@<TRIPOS>ATOM
      1 C1         -6.9720   -2.3450    4.8560 c3        1 MOL     -0.220911
      2 C2         -6.0800   -1.9420    3.6420 c         1 MOL      0.656637
      3 O1         -5.6920   -2.8100    2.8390 o         1 MOL     -0.524777
      4 H1         -6.6400   -1.8070    5.7440 hc        1 MOL      0.061847
      5 H2         -8.0100   -2.0910    4.6450 hc        1 MOL      0.061847
      6 H3         -6.8880   -3.4180    5.0300 hc        1 MOL      0.061847
      7 N1         -5.8210   -0.5930    3.4500 n         1 MOL     -0.616586
      8 C3         -5.4710    0.0560    2.1860 c3        1 MOL      0.568949
      9 C4         -4.0250   -0.0820    1.7500 c         1 MOL     -0.252549
     10 O2         -3.5830    0.4420    0.7230 o         1 MOL     -0.211691
     11 C5         -5.7750    1.5680    2.2420 c3        1 MOL     -0.011545
     12 C6         -7.1900    1.9360    2.6900 c         1 MOL      0.642434
     13 O3         -7.8780    2.6720    1.9810 o         1 MOL     -0.656905
     14 O4         -7.5910    1.4520    3.7450 o         1 MOL     -0.656905
     15 H4         -6.1430    0.0540    4.1580 hn        1 MOL      0.287587
     16 H5         -6.0570   -0.4070    1.3960 h1        1 MOL      0.009366
     17 H6         -5.6510    1.9110    1.2090 hc        1 MOL     -0.077300
     18 H7         -5.0690    2.1350    2.8360 hc        1 MOL     -0.077300
     19 N2         -3.1710   -0.7500    2.5230 n         1 MOL      0.025783
     20 C7         -1.6180   -0.6850    2.4990 c3        1 MOL      0.105784
     21 C8         -0.9330   -1.9750    2.0550 c         1 MOL      0.242589
     22 O5         -1.3760   -3.0290    2.5620 o         1 MOL     -0.473251
     23 C9         -1.1040   -0.3070    3.9240 c3        1 MOL     -0.274850
     24 C10        -1.6890    0.9440    4.5290 c3        1 MOL      0.253310
     25 C11        -0.7910    1.5940    5.7210 c3        1 MOL     -0.223278
     26 C12         0.3020    2.4740    5.1140 c3        1 MOL      0.326244
     27 N3          1.1710    3.1070    6.1860 n4        1 MOL     -0.422828
     28 H8         -3.6430   -1.3050    3.2230 hn        1 MOL      0.155804
     29 H9         -1.4010    0.0100    1.6870 h1        1 MOL      0.097712
     30 H10        -0.0360   -0.0990    3.8420 hc        1 MOL      0.096769
     31 H11        -1.3250   -1.1160    4.6120 hc        1 MOL      0.096769
     32 H12        -2.7130    0.7550    4.8440 hc        1 MOL     -0.038420
     33 H13        -1.7710    1.7870    3.8310 hc        1 MOL     -0.038420
     34 H14        -0.3840    0.7790    6.3270 hc        1 MOL      0.051823
     35 H15        -1.3810    2.2560    6.3590 hc        1 MOL      0.051823
     36 H16        -0.1970    3.2830    4.5690 hx        1 MOL      0.000427
     37 H17         0.7960    1.8270    4.3870 hx        1 MOL      0.000427
     38 H18         1.9830    3.4450    5.6990 hn        1 MOL      0.332219
     39 H19         0.9040    3.9740    6.6120 hn        1 MOL      0.332219
     40 H20         1.5140    2.4500    6.8720 hn        1 MOL      0.332219
     41 N4          0.1310   -2.1000    1.2490 n         1 MOL     -0.062198
     42 C13         0.9230   -1.0080    0.7160 c3        1 MOL     -0.001920
     43 C14         1.4430   -0.0490    1.7600 c         1 MOL      0.605338
     44 O6          1.0250    1.0800    1.9830 o         1 MOL     -0.585130
     45 C15         0.3160   -0.4110   -0.4810 c3        1 MOL     -1.022194
     46 C16        -0.1250   -1.4090   -1.5500 c         1 MOL      0.921998
     47 O7          0.3670   -2.5730   -1.7300 o         1 MOL     -0.738545
     48 O8         -0.9880   -0.9240   -2.3300 o         1 MOL     -0.738545
     49 H21         0.4810   -3.0060    1.0030 hn        1 MOL      0.116983
     50 H22         1.8170   -1.4560    0.2890 h1        1 MOL      0.018322
     51 H23         1.0490    0.3110   -0.8580 hc        1 MOL      0.409681
     52 H24        -0.5790    0.1390   -0.1990 hc        1 MOL      0.409681
     53 N5          2.5150   -0.4910    2.5410 n         1 MOL     -0.389386
     54 C17         3.2450   -1.7370    2.4080 c3        1 MOL     -0.228277
     55 C18         4.5110   -1.7120    3.4060 c         1 MOL      0.531325
     56 O9          4.7170   -0.8040    4.2650 o         1 MOL     -0.524185
     57 H25         2.8710    0.1580    3.2340 hn        1 MOL      0.271651
     58 H26         3.5880   -1.7560    1.3690 h1        1 MOL      0.132649
     59 H27         2.5350   -2.5640    2.4860 h1        1 MOL      0.132649
     60 N6          5.4470   -2.6790    3.3430 n         1 MOL     -0.399687
     61 C19         5.5870   -3.6570    2.2470 c3        1 MOL      0.111437
     62 C20         6.4770   -3.0890    1.0980 c         1 MOL      0.399042
     63 O10         7.3230   -2.2420    1.3660 o         1 MOL     -0.425149
     64 C21         6.1770   -5.0120    2.6660 c3        1 MOL     -0.163948
     65 C22         7.4900   -4.8480    3.4250 c         1 MOL      0.782630
     66 O11         7.5280   -5.0450    4.6810 o         1 MOL     -0.669256
     67 O12         8.4720   -4.6080    2.7510 o         1 MOL     -0.669256
     68 H28         5.9610   -2.8170    4.2050 hn        1 MOL      0.302054
     69 H29         4.6390   -3.9430    1.7830 h1        1 MOL     -0.017806
     70 H30         6.4880   -5.7340    1.9040 hc        1 MOL      0.002505
     71 H31         5.4360   -5.4770    3.3230 hc        1 MOL      0.002505
     72 N7          6.2780   -3.5290   -0.1160 n         1 MOL     -0.192517
     73 C23         7.0840   -3.2080   -1.3420 c3        1 MOL     -0.270926
     74 C24         6.7830   -1.8640   -1.9830 c         1 MOL      0.477812
     75 O13         7.6650   -1.3080   -2.6610 o         1 MOL     -0.533868
     76 H32         5.5830   -4.2490   -0.3000 hn        1 MOL      0.164160
     77 H33         6.9620   -3.9910   -2.0880 h1        1 MOL      0.154054
     78 H34         8.1200   -3.1750   -1.0180 h1        1 MOL      0.154054
     79 N8          5.5980   -1.3520   -1.7440 n         1 MOL     -0.219636
     80 C25         5.1250    0.0030   -2.1050 c3        1 MOL      0.066230
     81 C26         5.3770    1.0870   -0.9830 c         1 MOL      0.485638
     82 O14         5.5330    0.6550    0.1980 o         1 MOL     -0.497574
     83 C27         3.7000   -0.0960   -2.3660 c3        1 MOL      0.165491
     84 C28         3.4060   -0.8890   -3.6370 c3        1 MOL     -0.348336
     85 O15         3.1860    1.1740   -2.6920 oh        1 MOL     -0.523722
     86 H35         4.9750   -1.8770   -1.1630 hn        1 MOL      0.133944
     87 H36         5.7040    0.2370   -3.0000 h1        1 MOL      0.065164
     88 H37         3.1740   -0.5580   -1.5280 h1        1 MOL      0.075145
     89 H38         2.2280    1.1100   -2.6920 ho        1 MOL      0.344375
     90 H39         2.3230   -0.7840   -3.8130 hc        1 MOL      0.094101
     91 H40         3.8810   -0.5010   -4.5330 hc        1 MOL      0.094101
     92 H41         3.5740   -1.9510   -3.4670 hc        1 MOL      0.094101
     93 N9          5.4610    2.3960   -1.3000 n         1 MOL     -0.388575
     94 C29         5.5800    3.4820   -0.3290 c3        1 MOL     -0.059693
     95 C30         4.3090    4.3620   -0.1400 c         1 MOL      0.364773
     96 O16         4.2010    5.3070    0.6260 o         1 MOL     -0.521922
     97 C31         6.8010    4.3920   -0.5640 c3        1 MOL      0.117319
     98 C32         6.7060    5.0240   -1.9870 c3        1 MOL      0.178791
     99 C33         8.1240    3.7250   -0.3920 c3        1 MOL     -0.069495
    100 C34         7.5660    6.1980   -2.4350 c3        1 MOL     -0.412953
    101 H42         5.5240    2.5840   -2.2950 hn        1 MOL      0.270135
    102 H43         5.5520    3.0260    0.6570 h1        1 MOL      0.122010
    103 H44         6.7300    5.2400    0.1150 hc        1 MOL      0.006863
    104 H45         5.6440    5.1230   -2.1950 hc        1 MOL     -0.019685
    105 H46         6.9130    4.2900   -2.7610 hc        1 MOL     -0.019685
    106 H47         8.1400    3.2160    0.5710 hc        1 MOL      0.020508
    107 H48         8.4070    3.0880   -1.2250 hc        1 MOL      0.020508
    108 H49         8.8510    4.5180   -0.2190 hc        1 MOL      0.020508
    109 H50         7.5330    6.3060   -3.5240 hc        1 MOL      0.099504
    110 H51         7.1580    7.1200   -2.0330 hc        1 MOL      0.099504
    111 H52         8.5960    5.8920   -2.2480 hc        1 MOL      0.099504
    112 N10         3.2690    3.9520   -0.9300 n         1 MOL     -0.022995
    113 C35         1.9740    4.5870   -0.9960 c3        1 MOL     -0.183856
    114 C36         0.8000    3.5900   -1.1450 c         1 MOL      0.353677
    115 O17         0.7790    2.7630   -2.0550 o         1 MOL     -0.389641
    116 C37         1.9000    5.5230   -2.1710 c3        1 MOL      0.252003
    117 C38         2.3240    4.9760   -3.5260 c3        1 MOL     -0.020150
    118 O18         2.7600    6.6270   -1.9920 oh        1 MOL     -0.623136
    119 H53         3.3720    3.1110   -1.4700 hn        1 MOL      0.071268
    120 H54         1.7550    5.0680   -0.0480 h1        1 MOL      0.080694
    121 H55         0.8790    5.8770   -2.3260 h1        1 MOL      0.022975
    122 H56         2.5970    7.1820   -1.2260 ho        1 MOL      0.403472
    123 H57         2.1270    5.6750   -4.3470 hc        1 MOL      0.021488
    124 H58         3.3850    4.7630   -3.4330 hc        1 MOL      0.021488
    125 H59         1.8570    4.0480   -3.8610 hc        1 MOL      0.021488
    126 N11        -0.1550    3.7030   -0.2540 n         1 MOL     -0.240160
    127 C39        -1.4360    3.0070   -0.1220 c3        1 MOL      0.061370
    128 C40        -2.1920    2.8580   -1.4530 c         1 MOL      0.187655
    129 O19        -2.1440    3.7450   -2.3240 o         1 MOL     -0.453884
    130 C41        -2.3620    3.7230    0.8240 c3        1 MOL      0.125736
    131 C42        -2.6860    5.0790    0.4220 c3        1 MOL     -0.199983
    132 O20        -1.5760    3.9760    1.9860 oh        1 MOL     -0.590844
    133 H60         0.0390    4.3810    0.4650 hn        1 MOL      0.275889
    134 H61        -1.3780    1.9670    0.1940 h1        1 MOL     -0.050790
    135 H62        -3.2940    3.2080    1.0590 h1        1 MOL      0.141660
    136 H63        -2.2550    4.1070    2.6400 ho        1 MOL      0.393448
    137 H64        -3.1440    5.6070    1.2570 hc        1 MOL      0.055146
    138 H65        -1.8940    5.7360    0.0710 hc        1 MOL      0.055146
    139 H66        -3.4120    5.1150   -0.3880 hc        1 MOL      0.055146
    140 N12        -2.9690    1.7190   -1.6260 n         1 MOL      0.054831
    141 C43        -3.8890    1.4380   -2.7320 c3        1 MOL      0.029676
    142 C44        -4.2820   -0.0040   -2.8910 c         1 MOL      0.939041
    143 O21        -4.6640   -0.4870   -3.9650 o         1 MOL     -0.737357
    144 C45        -5.1220    2.3840   -2.6970 c3        1 MOL     -0.235646
    145 C46        -6.1330    1.9150   -1.6430 c3        1 MOL     -0.026207
    146 C47        -7.3310    2.7600   -1.3570 c3        1 MOL     -0.092422
    147 C48        -6.9060    4.0880   -0.8270 c3        1 MOL      0.205620
    148 N13        -7.8590    4.6940    0.1350 n4        1 MOL     -0.468167
    149 H67        -2.8170    0.9990   -0.9290 hn        1 MOL     -0.020832
    150 H68        -3.3480    1.6530   -3.6560 h1        1 MOL      0.062776
    151 H69        -5.6030    2.2960   -3.6620 hc        1 MOL      0.064950
    152 H70        -4.7650    3.3920   -2.4620 hc        1 MOL      0.064950
    153 H71        -5.5410    1.7870   -0.7380 hc        1 MOL      0.077934
    154 H72        -6.4700    0.9340   -1.9830 hc        1 MOL      0.077934
    155 H73        -7.8790    2.1880   -0.6030 hc        1 MOL      0.046412
    156 H74        -7.8570    2.8870   -2.3120 hc        1 MOL      0.046412
    157 H75        -6.7190    4.8170   -1.6140 hx        1 MOL      0.016933
    158 H76        -5.9620    4.0630   -0.2830 hx        1 MOL      0.016933
    159 H77        -7.4640    5.5340    0.5290 hn        1 MOL      0.320393
    160 H78        -8.7090    5.0410   -0.2780 hn        1 MOL      0.320393
    161 H79        -7.9970    3.9940    0.8480 hn        1 MOL      0.320393
    162 N14        -4.1230   -0.8110   -1.8850 n         1 MOL     -1.205346
    163 C49        -4.3830   -2.2220   -1.9680 c3        1 MOL      0.696928
    164 C50        -5.8960   -2.4130   -1.8700 c         1 MOL     -0.007286
    165 O22        -6.5360   -2.0770   -0.8720 o         1 MOL     -0.470942
    166 C51        -3.6630   -2.7960   -0.7300 c3        1 MOL      1.158423
    167 C52        -3.9230   -4.3000   -0.3720 c3        1 MOL     -0.887211
    168 C53        -3.5790   -5.0990   -1.5660 c         1 MOL      1.102186
    169 O23        -4.3050   -5.1350   -2.5770 o         1 MOL     -0.922245
    170 O24        -2.4170   -5.5890   -1.5770 o         1 MOL     -0.922245
    171 H80        -3.8930   -0.4450   -0.9710 hn        1 MOL      0.436108
    172 H81        -3.9540   -2.6840   -2.8520 h1        1 MOL      0.032801
    173 H82        -4.1520   -2.2860    0.0950 hc        1 MOL     -0.336209
    174 H83        -2.6120   -2.4890   -0.7120 hc        1 MOL     -0.336209
    175 H84        -4.9640   -4.4110   -0.0670 hc        1 MOL      0.179683
    176 H85        -3.2290   -4.5800    0.4160 hc        1 MOL      0.179683
    177 N15        -6.4660   -3.1220   -2.8560 n         1 MOL      0.048193
    178 C54        -7.9060   -3.4580   -2.8640 c3        1 MOL     -0.218979
    179 H86        -8.1920   -3.8100   -3.8550 h1        1 MOL      0.087499
    180 H87        -8.1010   -4.2410   -2.1300 h1        1 MOL      0.087499
    181 H88        -8.4880   -2.5710   -2.6130 h1        1 MOL      0.087499
    182 H89        -5.8890   -3.2710   -3.6760 hn        1 MOL      0.231546
    183 Ca1        -0.1100   -4.9910   -2.3570 Ca        1 MOL      1.601571
    184 O25        -1.1330   -5.7140   -4.8270 oh        1 MOL     -0.863998
    185 H90        -1.7150   -5.7070   -5.5910 ho        1 MOL      0.426699
    186 H91        -1.2010   -6.6080   -4.4920 ho        1 MOL      0.426699
    187 O26         1.7800   -4.0790   -4.3220 oh        1 MOL     -0.863998
    188 H92         2.6490   -4.4600   -4.3440 ho        1 MOL      0.426699
    189 H93         1.6790   -3.6540   -5.1790 ho        1 MOL      0.426699
    190 O27        -1.5430   -3.2060   -3.6550 oh        1 MOL     -0.863998
    191 H94        -1.4670   -2.3580   -3.2130 ho        1 MOL      0.426699
    192 H95        -1.3180   -3.0270   -4.5670 ho        1 MOL      0.426699
@<TRIPOS>BOND
     1    1    2 1   
     2    1    4 1   
     3    1    5 1   
     4    1    6 1   
     5    2    3 2   
     6    2    7 1   
     7    7    8 1   
     8    7   15 1   
     9    8    9 1   
    10    8   11 1   
    11    8   16 1   
    12    9   10 2   
    13    9   19 1   
    14   11   12 1   
    15   11   17 1   
    16   11   18 1   
    17   12   13 1   
    18   12   14 1   
    19   19   20 1   
    20   19   28 1   
    21   20   21 1   
    22   20   23 1   
    23   20   29 1   
    24   21   22 2   
    25   21   41 1   
    26   23   24 1   
    27   23   30 1   
    28   23   31 1   
    29   24   25 1   
    30   24   32 1   
    31   24   33 1   
    32   25   26 1   
    33   25   34 1   
    34   25   35 1   
    35   26   27 1   
    36   26   36 1   
    37   26   37 1   
    38   27   38 1   
    39   27   39 1   
    40   27   40 1   
    41   41   42 1   
    42   41   49 1   
    43   42   43 1   
    44   42   45 1   
    45   42   50 1   
    46   43   44 2   
    47   43   53 1   
    48   45   46 1   
    49   45   51 1   
    50   45   52 1   
    51   46   47 1   
    52   46   48 1   
    53   53   54 1   
    54   53   57 1   
    55   54   55 1   
    56   54   58 1   
    57   54   59 1   
    58   55   56 2   
    59   55   60 1   
    60   60   61 1   
    61   60   68 1   
    62   61   62 1   
    63   61   64 1   
    64   61   69 1   
    65   62   63 2   
    66   62   72 1   
    67   64   65 1   
    68   64   70 1   
    69   64   71 1   
    70   65   66 1   
    71   65   67 1   
    72   72   73 1   
    73   72   76 1   
    74   73   74 1   
    75   73   77 1   
    76   73   78 1   
    77   74   75 2   
    78   74   79 1   
    79   79   80 1   
    80   79   86 1   
    81   80   81 1   
    82   80   83 1   
    83   80   87 1   
    84   81   82 2   
    85   81   93 1   
    86   83   84 1   
    87   83   85 1   
    88   83   88 1   
    89   84   90 1   
    90   84   91 1   
    91   84   92 1   
    92   85   89 1   
    93   93   94 1   
    94   93  101 1   
    95   94   95 1   
    96   94   97 1   
    97   94  102 1   
    98   95   96 2   
    99   95  112 1   
   100   97   98 1   
   101   97   99 1   
   102   97  103 1   
   103   98  100 1   
   104   98  104 1   
   105   98  105 1   
   106   99  106 1   
   107   99  107 1   
   108   99  108 1   
   109  100  109 1   
   110  100  110 1   
   111  100  111 1   
   112  112  113 1   
   113  112  119 1   
   114  113  114 1   
   115  113  116 1   
   116  113  120 1   
   117  114  115 2   
   118  114  126 1   
   119  116  117 1   
   120  116  118 1   
   121  116  121 1   
   122  117  123 1   
   123  117  124 1   
   124  117  125 1   
   125  118  122 1   
   126  126  127 1   
   127  126  133 1   
   128  127  128 1   
   129  127  130 1   
   130  127  134 1   
   131  128  129 2   
   132  128  140 1   
   133  130  131 1   
   134  130  132 1   
   135  130  135 1   
   136  131  137 1   
   137  131  138 1   
   138  131  139 1   
   139  132  136 1   
   140  140  141 1   
   141  140  149 1   
   142  141  142 1   
   143  141  144 1   
   144  141  150 1   
   145  142  143 2   
   146  142  162 1   
   147  144  145 1   
   148  144  151 1   
   149  144  152 1   
   150  145  146 1   
   151  145  153 1   
   152  145  154 1   
   153  146  147 1   
   154  146  155 1   
   155  146  156 1   
   156  147  148 1   
   157  147  157 1   
   158  147  158 1   
   159  148  159 1   
   160  148  160 1   
   161  148  161 1   
   162  162  163 1   
   163  162  171 1   
   164  163  164 1   
   165  163  166 1   
   166  163  172 1   
   167  164  165 2   
   168  164  177 1   
   169  166  167 1   
   170  166  173 1   
   171  166  174 1   
   172  167  168 1   
   173  167  175 1   
   174  167  176 1   
   175  168  169 1   
   176  168  170 1   
   177  177  178 1   
   178  177  182 1   
   179  178  179 1   
   180  178  180 1   
   181  178  181 1   
   182  184  185 1   
   183  184  186 1   
   184  187  188 1   
   185  187  189 1   
   186  190  191 1   
   187  190  192 1   
@<TRIPOS>SUBSTRUCTURE
     1 MOL         1 TEMP              0 ****  ****    0 ROOT
