@<TRIPOS>MOLECULE
MOL
  188   182     1     0     0
SMALL
resp


@<TRIPOS>ATOM
      1 C1         -6.5810   -1.4020    2.7940 c3        1 MOL     -0.369158
      2 C2         -7.0170   -1.5770    1.3320 c         1 MOL      0.562550
      3 O1         -6.3470   -1.1240    0.3990 o         1 MOL     -0.430155
      4 H1         -7.0700   -2.1540    3.4110 hc        1 MOL      0.094584
      5 H2         -5.4990   -1.5190    2.8670 hc        1 MOL      0.094584
      6 H3         -6.8630   -0.4080    3.1400 hc        1 MOL      0.094584
      7 N1         -8.1530   -2.2100    1.0480 n         1 MOL     -0.369855
      8 C3         -8.8590   -2.0640   -0.2700 c3        1 MOL     -0.052251
      9 C4         -8.8770   -0.7330   -0.9260 c         1 MOL      0.577283
     10 O2         -8.8700   -0.5250   -2.1480 o         1 MOL     -0.504595
     11 C5         -8.5550   -3.2600   -1.2420 c3        1 MOL     -0.173357
     12 C6         -8.7850   -4.7330   -0.7980 c         1 MOL      0.703480
     13 O3         -7.7720   -5.4670   -0.8900 o         1 MOL     -0.640789
     14 O4         -9.8560   -5.1830   -0.3240 o         1 MOL     -0.640789
     15 H4         -8.6460   -2.5840    1.8460 hn        1 MOL      0.273075
     16 H5         -9.9350   -2.1380   -0.1250 h1        1 MOL      0.058496
     17 H6         -7.5100   -3.1200   -1.5000 hc        1 MOL      0.056567
     18 H7         -9.1650   -3.1690   -2.1310 hc        1 MOL      0.056567
     19 N2         -8.8850    0.3260   -0.1120 n         1 MOL     -0.377790
     20 C7         -8.8050    1.7290   -0.5420 c3        1 MOL      0.046207
     21 C8         -7.3670    2.2310   -0.7570 c         1 MOL      0.592747
     22 O5         -7.1860    3.2380   -1.4160 o         1 MOL     -0.566917
     23 C9         -9.5900    2.7620    0.3620 c3        1 MOL     -0.261968
     24 C10        -8.9640    2.9440    1.7160 c3        1 MOL      0.421248
     25 C11        -9.8680    3.8130    2.6290 c3        1 MOL     -0.251666
     26 C12        -9.1030    3.9360    3.9880 c3        1 MOL      0.053326
     27 N3         -9.9960    4.6350    4.9640 n4        1 MOL     -0.094238
     28 H8         -9.3580    0.1760    0.7610 hn        1 MOL      0.210855
     29 H9         -9.2980    1.8060   -1.5130 h1        1 MOL      0.083248
     30 H10       -10.6080    2.4540    0.6030 hc        1 MOL      0.074416
     31 H11        -9.5570    3.7850   -0.0130 hc        1 MOL      0.074416
     32 H12        -7.9800    3.4080    1.6840 hc        1 MOL     -0.079349
     33 H13        -8.8440    1.9700    2.1820 hc        1 MOL     -0.079349
     34 H14       -10.8340    3.3390    2.7940 hc        1 MOL      0.073394
     35 H15        -9.9650    4.7680    2.1100 hc        1 MOL      0.073394
     36 H16        -8.1500    4.4510    3.8920 hx        1 MOL      0.064104
     37 H17        -8.9340    2.9810    4.4870 hx        1 MOL      0.064104
     38 H18       -10.8670    4.1270    4.9960 hn        1 MOL      0.194940
     39 H19        -9.6560    4.7820    5.9030 hn        1 MOL      0.194940
     40 H20       -10.2410    5.5460    4.6020 hn        1 MOL      0.194940
     41 N4         -6.4350    1.6350   -0.0250 n         1 MOL     -0.422612
     42 C13        -4.9800    2.0240   -0.2090 c3        1 MOL     -0.041705
     43 C14        -4.5320    2.0700   -1.7010 c         1 MOL      0.584394
     44 O6         -5.0500    1.3290   -2.6290 o         1 MOL     -0.443870
     45 C15        -4.0330    1.0490    0.5250 c3        1 MOL      0.059536
     46 C16        -2.5130    1.4020    0.4390 c         1 MOL      0.394989
     47 O7         -1.9430    1.9220    1.4220 o         1 MOL     -0.657034
     48 O8         -1.9000    1.0530   -0.5820 o         1 MOL     -0.657034
     49 H21        -6.6070    0.7390    0.3940 hn        1 MOL      0.167557
     50 H22        -4.8810    2.9890    0.2890 h1        1 MOL      0.056944
     51 H23        -4.1190    0.0320    0.1560 hc        1 MOL      0.016863
     52 H24        -4.3900    1.0550    1.5590 hc        1 MOL      0.016863
     53 N5         -3.7980    3.1490   -1.9640 n         1 MOL     -0.336408
     54 C17        -3.4030    3.5880   -3.2820 c3        1 MOL     -0.144978
     55 C18        -2.4880    2.6770   -4.0650 c         1 MOL      0.483379
     56 O9         -2.3620    2.7890   -5.2830 o         1 MOL     -0.545399
     57 H25        -3.4430    3.6130   -1.1400 hn        1 MOL      0.217176
     58 H26        -2.7500    4.4480   -3.1450 h1        1 MOL      0.113261
     59 H27        -4.2410    4.0300   -3.8220 h1        1 MOL      0.113261
     60 N6         -2.0560    1.5760   -3.4430 n         1 MOL     -0.196747
     61 C19        -1.5560    0.4030   -4.0940 c3        1 MOL      0.059085
     62 C20        -1.8030   -0.8180   -3.2350 c         1 MOL      0.391039
     63 O10        -0.9260   -1.6390   -3.0380 o         1 MOL     -0.533738
     64 C21        -0.0760    0.5610   -4.5710 c3        1 MOL     -0.231696
     65 C22         0.9140    0.7550   -3.4450 c         1 MOL      0.526758
     66 N7          2.1770    0.8540   -3.7750 n         1 MOL     -0.603778
     67 O11         0.5960    0.9070   -2.2380 o         1 MOL     -0.535979
     68 H28        -2.2010    1.6060   -2.4380 hn        1 MOL      0.136128
     69 H29        -2.1500    0.1770   -4.9770 h1        1 MOL      0.087677
     70 H30        -0.1360    1.3440   -5.3300 hc        1 MOL      0.102483
     71 H31         0.1910   -0.2900   -5.1820 hc        1 MOL      0.102483
     72 H32         2.3670    0.7380   -4.7550 hn        1 MOL      0.313910
     73 H33         2.9040    0.8010   -3.0700 hn        1 MOL      0.313910
     74 N8         -2.9930   -0.9390   -2.6360 n         1 MOL     -0.124144
     75 C23        -3.5100   -2.2040   -2.0870 c3        1 MOL     -0.328329
     76 C24        -2.7670   -2.6840   -0.8440 c         1 MOL      0.590061
     77 O12        -3.2200   -3.6980   -0.3630 o         1 MOL     -0.519541
     78 H34        -3.6930   -0.2480   -2.8590 hn        1 MOL      0.134551
     79 H35        -3.4730   -3.0150   -2.8240 h1        1 MOL      0.167804
     80 H36        -4.4910   -1.8830   -1.7360 h1        1 MOL      0.167804
     81 N9         -1.6830   -2.0730   -0.3940 n         1 MOL     -0.379511
     82 C25        -1.0160   -2.4560    0.8280 c3        1 MOL     -0.155607
     83 C26         0.3280   -1.7260    0.8760 c         1 MOL      0.375432
     84 O13         0.4100   -0.4880    0.6370 o         1 MOL     -0.602418
     85 C27        -1.8840   -2.2410    2.0220 c3        1 MOL     -0.059682
     86 C28        -1.2410   -2.1420    3.3250 ca        1 MOL      0.031661
     87 C29        -0.8410   -3.2760    3.9890 ca        1 MOL     -0.156590
     88 C30        -0.8190   -0.9120    3.7340 ca        1 MOL     -0.156590
     89 C31         0.0010   -3.2230    5.1210 ca        1 MOL     -0.251635
     90 C32         0.0150   -0.8290    4.8560 ca        1 MOL     -0.251635
     91 C33         0.3930   -1.9530    5.5730 ca        1 MOL      0.332306
     92 O14         1.1150   -1.7650    6.7130 oh        1 MOL     -0.458982
     93 H37        -1.3320   -1.2600   -0.8770 hn        1 MOL      0.387887
     94 H38        -0.8510   -3.5290    0.8830 h1        1 MOL      0.118827
     95 H39        -2.6850   -2.9850    2.0930 hc        1 MOL      0.099050
     96 H40        -2.4090   -1.2980    1.8780 hc        1 MOL      0.099050
     97 H41        -1.1990   -4.2260    3.6270 ha        1 MOL      0.144999
     98 H42        -1.1350   -0.0570    3.1600 ha        1 MOL      0.144999
     99 H43         0.3480   -4.0890    5.6780 ha        1 MOL      0.135500
    100 H44         0.2590    0.2000    5.0910 ha        1 MOL      0.135500
    101 H45         1.1750   -0.8110    6.7430 ho        1 MOL      0.328833
    102 N10         1.3070   -2.4930    1.2970 n         1 MOL     -0.274651
    103 C34         2.6980   -1.9310    1.2770 c3        1 MOL      0.016645
    104 C35         3.2740   -1.7680   -0.1520 c         1 MOL      0.319572
    105 O15         3.9730   -0.7940   -0.4640 o         1 MOL     -0.481266
    106 C36         3.6330   -2.7840    2.1860 c3        1 MOL      0.087431
    107 C37         2.8940   -3.0250    3.4920 c3        1 MOL      0.237257
    108 C38         4.9850   -2.0990    2.2930 c3        1 MOL     -0.332395
    109 C39         3.5830   -3.9800    4.4980 c3        1 MOL     -0.371436
    110 H46         1.1420   -3.4390    1.6110 hn        1 MOL      0.226727
    111 H47         2.7540   -0.9670    1.7780 h1        1 MOL      0.068422
    112 H48         3.7180   -3.6920    1.5920 hc        1 MOL     -0.033238
    113 H49         2.0580   -3.7050    3.3650 hc        1 MOL     -0.007564
    114 H50         2.6280   -2.0720    3.9340 hc        1 MOL     -0.007564
    115 H51         5.6070   -2.3990    3.1270 hc        1 MOL      0.079627
    116 H52         5.6080   -2.3370    1.4230 hc        1 MOL      0.079627
    117 H53         4.8190   -1.0270    2.3450 hc        1 MOL      0.079627
    118 H54         3.0260   -4.0440    5.4350 hc        1 MOL      0.096793
    119 H55         3.5970   -4.9750    4.0590 hc        1 MOL      0.096793
    120 H56         4.5690   -3.5850    4.7160 hc        1 MOL      0.096793
    121 N11         2.8250   -2.6530   -1.0270 n         1 MOL     -0.032739
    122 C40         3.2800   -2.6370   -2.4160 c3        1 MOL     -0.230290
    123 C41         4.8220   -2.8160   -2.4230 c         1 MOL      0.463160
    124 O16         5.4910   -2.3240   -3.3310 o         1 MOL     -0.503894
    125 C42         2.6200   -3.7600   -3.3030 c3        1 MOL      0.091710
    126 O17         2.5520   -5.0120   -2.5190 oh        1 MOL     -0.632898
    127 H57         2.5610   -3.5380   -0.6290 hn        1 MOL      0.213698
    128 H58         3.0830   -1.6370   -2.8170 h1        1 MOL      0.146012
    129 H59         3.1770   -3.9560   -4.2280 h1        1 MOL      0.084112
    130 H60         1.6900   -3.3920   -3.7430 h1        1 MOL      0.084112
    131 H61         2.1770   -5.6840   -3.0890 ho        1 MOL      0.439279
    132 N12         5.4590   -3.4900   -1.4520 n         1 MOL     -0.252600
    133 C43         6.9000   -3.6530   -1.2570 c3        1 MOL      0.173255
    134 C44         7.7110   -2.4010   -1.2120 c         1 MOL      0.493065
    135 O18         8.9200   -2.5850   -1.4480 o         1 MOL     -0.535813
    136 C45         7.3830   -4.6580   -2.3400 c3        1 MOL     -0.423345
    137 H62         4.9800   -3.9980   -0.7250 hn        1 MOL      0.216560
    138 H63         7.0500   -4.1660   -0.2960 h1        1 MOL      0.052713
    139 H64         8.4010   -4.9910   -2.1110 hc        1 MOL      0.125063
    140 H65         6.7000   -5.4950   -2.3880 hc        1 MOL      0.125063
    141 H66         7.4680   -4.0510   -3.2480 hc        1 MOL      0.125063
    142 N13         7.1890   -1.1690   -1.0590 n         1 MOL     -0.545591
    143 C46         7.9610    0.0920   -1.3810 c3        1 MOL      0.561451
    144 C47         8.3980    0.8280   -0.1180 c         1 MOL      0.293632
    145 O19         7.9410    0.6070    0.9750 o         1 MOL     -0.416616
    146 C48         7.1330    1.0210   -2.2700 c3        1 MOL     -0.223873
    147 H67         6.2070   -1.0270   -0.8740 hn        1 MOL      0.221700
    148 H68         8.8620   -0.1630   -1.9400 h1        1 MOL     -0.051671
    149 H69         7.7820    1.8100   -2.6300 hc        1 MOL      0.051172
    150 H70         6.8550    0.3930   -3.1220 hc        1 MOL      0.051172
    151 H71         6.2800    1.4560   -1.7340 hc        1 MOL      0.051172
    152 N14         9.4310    1.6340   -0.3230 n         1 MOL     -0.574913
    153 C49         9.8660    2.6280    0.6560 c3        1 MOL     -0.018751
    154 C50        10.5390    2.0170    1.8920 c         1 MOL      0.448423
    155 O20        10.5780    2.6890    2.9460 o         1 MOL     -0.504731
    156 C51         8.7290    3.6180    0.9790 c3        1 MOL      0.277089
    157 C52         8.1110    4.3330   -0.2320 c3        1 MOL     -0.140066
    158 C53         7.0160    5.3910    0.1230 c         1 MOL      0.614027
    159 O21         5.9480    5.0130    0.7030 o         1 MOL     -0.699182
    160 O22         7.3260    6.5780   -0.1810 o         1 MOL     -0.699182
    161 H72         9.7490    1.7130   -1.2830 hn        1 MOL      0.332038
    162 H73        10.6620    3.1340    0.1010 h1        1 MOL      0.068529
    163 H74         9.1930    4.3560    1.6190 hc        1 MOL     -0.042166
    164 H75         7.9010    3.1780    1.5270 hc        1 MOL     -0.042166
    165 H76         7.7050    3.6290   -0.9590 hc        1 MOL     -0.008007
    166 H77         8.8860    4.8640   -0.7820 hc        1 MOL     -0.008007
    167 N15        10.9410    0.7570    1.8180 n         1 MOL     -0.327831
    168 C54        11.3550   -0.0550    2.9870 c3        1 MOL     -0.077091
    169 H78        10.4840   -0.5630    3.4030 h1        1 MOL      0.069399
    170 H79        12.0910   -0.7960    2.6730 h1        1 MOL      0.069399
    171 H80        11.7920    0.5940    3.7460 h1        1 MOL      0.069399
    172 H81        10.8650    0.1750    1.0040 hn        1 MOL      0.267304
    173 Ca1         0.5230    2.0320    0.1050 Ca        1 MOL      1.838531
    174 O23        -1.2390    4.0110   -0.4720 oh        1 MOL     -0.846815
    175 H82        -1.9630    4.1810    0.1290 ho        1 MOL      0.417885
    176 H83        -1.3090    4.7080   -1.1310 ho        1 MOL      0.417885
    177 O24         3.0660    1.5590    0.3110 oh        1 MOL     -0.846815
    178 H84         3.7960    2.0740    0.6600 ho        1 MOL      0.417885
    179 H85         3.4110    0.6680    0.2390 ho        1 MOL      0.417885
    180 O25         1.1840    1.7800    2.6710 oh        1 MOL     -0.846815
    181 H86         0.8510    2.1580    3.4800 ho        1 MOL      0.417885
    182 H87         2.0410    1.4250    2.9180 ho        1 MOL      0.417885
    183 O26         1.5090    4.3890    1.0390 oh        1 MOL     -0.846815
    184 H88         1.0000    4.7530    1.7750 ho        1 MOL      0.417885
    185 H89         2.0430    5.1230    0.7400 ho        1 MOL      0.417885
    186 O27         1.7550    3.4120   -1.6890 oh        1 MOL     -0.846815
    187 H90         1.8780    3.6050   -2.6150 ho        1 MOL      0.417885
    188 H91         2.4540    3.8990   -1.2540 ho        1 MOL      0.417885
@<TRIPOS>BOND
     1    1    2 1   
     2    1    4 1   
     3    1    5 1   
     4    1    6 1   
     5    2    3 2   
     6    2    7 1   
     7    7    8 1   
     8    7   15 1   
     9    8    9 1   
    10    8   11 1   
    11    8   16 1   
    12    9   10 2   
    13    9   19 1   
    14   11   12 1   
    15   11   17 1   
    16   11   18 1   
    17   12   13 1   
    18   12   14 1   
    19   19   20 1   
    20   19   28 1   
    21   20   21 1   
    22   20   23 1   
    23   20   29 1   
    24   21   22 2   
    25   21   41 1   
    26   23   24 1   
    27   23   30 1   
    28   23   31 1   
    29   24   25 1   
    30   24   32 1   
    31   24   33 1   
    32   25   26 1   
    33   25   34 1   
    34   25   35 1   
    35   26   27 1   
    36   26   36 1   
    37   26   37 1   
    38   27   38 1   
    39   27   39 1   
    40   27   40 1   
    41   41   42 1   
    42   41   49 1   
    43   42   43 1   
    44   42   45 1   
    45   42   50 1   
    46   43   44 2   
    47   43   53 1   
    48   45   46 1   
    49   45   51 1   
    50   45   52 1   
    51   46   47 1   
    52   46   48 1   
    53   53   54 1   
    54   53   57 1   
    55   54   55 1   
    56   54   58 1   
    57   54   59 1   
    58   55   56 2   
    59   55   60 1   
    60   60   61 1   
    61   60   68 1   
    62   61   62 1   
    63   61   64 1   
    64   61   69 1   
    65   62   63 2   
    66   62   74 1   
    67   64   65 1   
    68   64   70 1   
    69   64   71 1   
    70   65   66 1   
    71   65   67 2   
    72   66   72 1   
    73   66   73 1   
    74   74   75 1   
    75   74   78 1   
    76   75   76 1   
    77   75   79 1   
    78   75   80 1   
    79   76   77 2   
    80   76   81 1   
    81   81   82 1   
    82   81   93 1   
    83   82   83 1   
    84   82   85 1   
    85   82   94 1   
    86   83   84 2   
    87   83  102 1   
    88   85   86 1   
    89   85   95 1   
    90   85   96 1   
    91   86   87 ar  
    92   86   88 ar  
    93   87   89 ar  
    94   87   97 1   
    95   88   90 ar  
    96   88   98 1   
    97   89   91 ar  
    98   89   99 1   
    99   90   91 ar  
   100   90  100 1   
   101   91   92 1   
   102   92  101 1   
   103  102  103 1   
   104  102  110 1   
   105  103  104 1   
   106  103  106 1   
   107  103  111 1   
   108  104  105 2   
   109  104  121 1   
   110  106  107 1   
   111  106  108 1   
   112  106  112 1   
   113  107  109 1   
   114  107  113 1   
   115  107  114 1   
   116  108  115 1   
   117  108  116 1   
   118  108  117 1   
   119  109  118 1   
   120  109  119 1   
   121  109  120 1   
   122  121  122 1   
   123  121  127 1   
   124  122  123 1   
   125  122  125 1   
   126  122  128 1   
   127  123  124 2   
   128  123  132 1   
   129  125  126 1   
   130  125  129 1   
   131  125  130 1   
   132  126  131 1   
   133  132  133 1   
   134  132  137 1   
   135  133  134 1   
   136  133  136 1   
   137  133  138 1   
   138  134  135 2   
   139  134  142 1   
   140  136  139 1   
   141  136  140 1   
   142  136  141 1   
   143  142  143 1   
   144  142  147 1   
   145  143  144 1   
   146  143  146 1   
   147  143  148 1   
   148  144  145 2   
   149  144  152 1   
   150  146  149 1   
   151  146  150 1   
   152  146  151 1   
   153  152  153 1   
   154  152  161 1   
   155  153  154 1   
   156  153  156 1   
   157  153  162 1   
   158  154  155 2   
   159  154  167 1   
   160  156  157 1   
   161  156  163 1   
   162  156  164 1   
   163  157  158 1   
   164  157  165 1   
   165  157  166 1   
   166  158  159 1   
   167  158  160 1   
   168  167  168 1   
   169  167  172 1   
   170  168  169 1   
   171  168  170 1   
   172  168  171 1   
   173  174  175 1   
   174  174  176 1   
   175  177  178 1   
   176  177  179 1   
   177  180  181 1   
   178  180  182 1   
   179  183  184 1   
   180  183  185 1   
   181  186  187 1   
   182  186  188 1   
@<TRIPOS>SUBSTRUCTURE
     1 MOL         1 TEMP              0 ****  ****    0 ROOT
