@<TRIPOS>MOLECULE
MOL
  195   189     1     0     0
SMALL
resp


@<TRIPOS>ATOM
      1 C1         13.2120    4.0230   -2.3120 c3        1 MOL     -0.432394
      2 C2         12.5950    2.7090   -1.8190 c         1 MOL      0.659664
      3 O1         12.7750    1.5970   -2.3680 o         1 MOL     -0.620611
      4 H1         12.7890    4.2810   -3.2830 hc        1 MOL      0.110577
      5 H2         12.9940    4.8180   -1.5990 hc        1 MOL      0.110577
      6 H3         14.2920    3.9070   -2.4070 hc        1 MOL      0.110577
      7 N1         12.0540    2.7520   -0.6420 n         1 MOL     -0.223820
      8 C3         11.3690    1.6360   -0.0040 c3        1 MOL     -0.224753
      9 C4         10.0050    1.4520   -0.6290 c         1 MOL      0.447188
     10 O2          9.2240    2.3600   -0.8410 o         1 MOL     -0.562104
     11 C5         11.2290    1.8310    1.5390 c3        1 MOL     -0.259798
     12 C6         10.7530    3.1890    2.1230 c         1 MOL      0.852507
     13 O3         10.5980    4.1560    1.3670 o         1 MOL     -0.752814
     14 O4         10.6080    3.3540    3.3690 o         1 MOL     -0.752814
     15 H4         12.0640    3.6330   -0.1470 hn        1 MOL      0.160347
     16 H5         11.9480    0.7500   -0.2880 h1        1 MOL      0.146087
     17 H6         12.2370    1.7490    1.9580 hc        1 MOL      0.120149
     18 H7         10.5850    1.0530    1.9420 hc        1 MOL      0.120149
     19 N2          9.5940    0.1910   -0.8610 n         1 MOL     -0.334738
     20 C7          8.2270   -0.2560   -1.0800 c3        1 MOL      0.009043
     21 C8          7.4560   -0.3150    0.2090 c         1 MOL      0.687417
     22 O5          7.9250   -0.9960    1.1740 o         1 MOL     -0.540687
     23 C9          8.2970   -1.6120   -1.7320 c3        1 MOL     -0.514670
     24 C10         6.8980   -2.2120   -2.0000 c3        1 MOL      0.225183
     25 C11         6.8140   -3.2060   -3.0940 c3        1 MOL     -0.123617
     26 C12         7.1510   -2.5940   -4.4920 c3        1 MOL      0.104073
     27 N3          6.9430   -3.6050   -5.5450 n4        1 MOL     -0.205356
     28 H8         10.2470   -0.5190   -0.5620 hn        1 MOL      0.266040
     29 H9          7.7160    0.4070   -1.7870 h1        1 MOL      0.129446
     30 H10         8.9120   -2.3570   -1.2380 hc        1 MOL      0.160721
     31 H11         8.8130   -1.5730   -2.6860 hc        1 MOL      0.160721
     32 H12         6.1780   -1.4250   -2.2080 hc        1 MOL      0.006305
     33 H13         6.4750   -2.6710   -1.1060 hc        1 MOL      0.006305
     34 H14         5.8350   -3.6960   -3.1390 hc        1 MOL      0.056225
     35 H15         7.5660   -3.9810   -2.9310 hc        1 MOL      0.056225
     36 H16         8.2100   -2.3480   -4.4790 hx        1 MOL      0.028147
     37 H17         6.6240   -1.6500   -4.5870 hx        1 MOL      0.028147
     38 H18         7.2920   -4.4820   -5.1920 hn        1 MOL      0.235330
     39 H19         5.9960   -3.7620   -5.8700 hn        1 MOL      0.235330
     40 H20         7.3950   -3.3470   -6.4160 hn        1 MOL      0.235330
     41 N4          6.2670    0.3440    0.1510 n         1 MOL     -0.501478
     42 C13         5.2840    0.3000    1.2080 c3        1 MOL      0.291665
     43 C14         3.8470    0.3680    0.6370 c         1 MOL      0.387688
     44 O6          3.6650    0.7030   -0.5320 o         1 MOL     -0.574478
     45 C15         5.4840    1.4010    2.2890 c3        1 MOL     -0.028368
     46 C16         6.3210    2.5450    1.7180 c         1 MOL      0.674445
     47 O7          7.5910    2.4540    1.5880 o         1 MOL     -0.767774
     48 O8          5.8160    3.5590    1.2430 o         1 MOL     -0.767774
     49 H21         6.0920    0.9420   -0.6470 hn        1 MOL      0.233968
     50 H22         5.2670   -0.7060    1.6240 h1        1 MOL     -0.006327
     51 H23         6.0310    1.0220    3.1580 hc        1 MOL      0.023879
     52 H24         4.5330    1.7560    2.6900 hc        1 MOL      0.023879
     53 N5          2.7990   -0.0860    1.2960 n         1 MOL     -0.344327
     54 C17         2.8570   -0.7070    2.5850 c3        1 MOL     -0.034340
     55 C18         2.7030   -2.3010    2.4990 c         1 MOL      0.747172
     56 O9          3.1780   -2.9840    1.5900 o         1 MOL     -0.573518
     57 H25         1.9740    0.1840    0.7790 hn        1 MOL      0.313118
     58 H26         2.0620   -0.3110    3.2190 h1        1 MOL      0.044416
     59 H27         3.7730   -0.4700    3.1170 h1        1 MOL      0.044416
     60 N6          2.0390   -2.9090    3.5310 n         1 MOL     -0.667014
     61 C19         2.3100   -4.3730    3.6580 c3        1 MOL      0.163697
     62 C20         1.3600   -5.1950    2.7990 c         1 MOL      0.546466
     63 O10         0.1290   -5.1620    2.9610 o         1 MOL     -0.551616
     64 C21         2.2940   -4.7850    5.1610 c3        1 MOL     -0.244774
     65 C22         2.4530   -6.2760    5.3120 c         1 MOL      0.664672
     66 O11         1.7530   -6.9460    6.1690 o         1 MOL     -0.641135
     67 O12         3.1980   -6.8590    4.5200 o         1 MOL     -0.641135
     68 H28         1.5220   -2.4200    4.2410 hn        1 MOL      0.348265
     69 H29         3.3510   -4.5600    3.4120 h1        1 MOL      0.032386
     70 H30         1.4530   -4.3540    5.6920 hc        1 MOL      0.063544
     71 H31         3.0990   -4.2700    5.6920 hc        1 MOL      0.063544
     72 N7          1.8570   -6.0640    1.9090 n         1 MOL     -0.178323
     73 C23         1.0030   -6.8910    1.0350 c3        1 MOL     -0.205785
     74 C24         0.5300   -6.1420   -0.2410 c         1 MOL      0.543290
     75 O13        -0.2190   -6.7530   -0.9560 o         1 MOL     -0.555644
     76 H32         2.8570   -6.2230    1.8910 hn        1 MOL      0.206443
     77 H33         0.2190   -7.2910    1.6860 h1        1 MOL      0.116146
     78 H34         1.5760   -7.7370    0.6640 h1        1 MOL      0.116146
     79 N8          0.8690   -4.8520   -0.3450 n         1 MOL     -0.246167
     80 C25         0.4370   -3.9020   -1.4160 c3        1 MOL     -0.000273
     81 C26        -0.0870   -2.5510   -0.8120 c         1 MOL      0.453594
     82 O14         0.0740   -2.2580    0.3650 o         1 MOL     -0.479489
     83 C27         1.6190   -3.6830   -2.3830 c3        1 MOL      0.323667
     84 C28         2.8150   -2.8640   -1.8280 c3        1 MOL     -0.212314
     85 O15         2.1370   -4.8850   -2.9520 oh        1 MOL     -0.623123
     86 H35         1.4560   -4.5000    0.3970 hn        1 MOL      0.117986
     87 H36        -0.3410   -4.3930   -2.0100 h1        1 MOL      0.052939
     88 H37         1.2030   -3.0240   -3.1410 h1        1 MOL     -0.072832
     89 H38         1.6150   -5.1950   -3.6940 ho        1 MOL      0.391055
     90 H39         2.5440   -1.8090   -1.7880 hc        1 MOL      0.057292
     91 H40         3.0350   -3.3080   -0.8600 hc        1 MOL      0.057292
     92 H41         3.6590   -2.9640   -2.5190 hc        1 MOL      0.057292
     93 N9         -0.7500   -1.7580   -1.6980 n         1 MOL     -0.298881
     94 C29        -1.1660   -0.3800   -1.4550 c3        1 MOL     -0.209557
     95 C30        -2.5510   -0.3230   -0.8040 c         1 MOL      0.706319
     96 O16        -2.7750    0.7160   -0.1800 o         1 MOL     -0.537952
     97 C31        -0.9900    0.5350   -2.7600 c3        1 MOL      0.075009
     98 C32         0.5350    0.7290   -3.1270 c3        1 MOL      0.187370
     99 C33        -1.5930    1.9300   -2.5470 c3        1 MOL     -0.290317
    100 C34         0.8070    1.5000   -4.4100 c3        1 MOL     -0.346360
    101 H42        -0.8790   -2.1100   -2.6380 hn        1 MOL      0.221153
    102 H43        -0.4930    0.0360   -0.7040 h1        1 MOL      0.124326
    103 H44        -1.4500    0.0380   -3.6120 hc        1 MOL      0.027893
    104 H45         1.0180   -0.2300   -3.2880 hc        1 MOL     -0.014941
    105 H46         1.1120    1.1100   -2.2890 hc        1 MOL     -0.014941
    106 H47        -2.6750    1.7660   -2.6070 hc        1 MOL      0.086120
    107 H48        -1.2200    2.2930   -1.5900 hc        1 MOL      0.086120
    108 H49        -1.2260    2.6240   -3.2910 hc        1 MOL      0.086120
    109 H50         1.4180    2.3500   -4.1210 hc        1 MOL      0.074983
    110 H51         1.4530    0.9760   -5.1080 hc        1 MOL      0.074983
    111 H52        -0.0160    1.7810   -5.0610 hc        1 MOL      0.074983
    112 N10        -3.3290   -1.4490   -0.8740 n         1 MOL     -0.542873
    113 C35        -4.7060   -1.5790   -0.3230 c3        1 MOL      0.088086
    114 C36        -5.7730   -1.8870   -1.4200 c         1 MOL      0.622931
    115 O17        -5.4000   -2.3390   -2.4680 o         1 MOL     -0.546477
    116 C37        -4.8500   -2.4740    0.9420 c3        1 MOL      0.358258
    117 C38        -4.1020   -3.8280    0.9590 c3        1 MOL     -0.409905
    118 O18        -4.3760   -1.7680    1.9840 oh        1 MOL     -0.599000
    119 H53        -2.9270   -2.3180   -1.1840 hn        1 MOL      0.264976
    120 H54        -5.0190   -0.5900    0.0030 h1        1 MOL      0.061581
    121 H55        -5.9080   -2.6880    1.0700 h1        1 MOL     -0.041326
    122 H56        -3.9610   -2.4490    2.5190 ho        1 MOL      0.400687
    123 H57        -4.2240   -4.3060   -0.0120 hc        1 MOL      0.119882
    124 H58        -3.0710   -3.6600    1.2780 hc        1 MOL      0.119882
    125 H59        -4.4750   -4.4870    1.7410 hc        1 MOL      0.119882
    126 N11        -7.0680   -1.6030   -1.2010 n         1 MOL     -0.609924
    127 C39        -8.1620   -1.7780   -2.1780 c3        1 MOL     -0.088991
    128 C40        -9.4240   -0.8340   -2.0410 c         1 MOL      0.681091
    129 O19       -10.0110   -0.5510   -3.0860 o         1 MOL     -0.576066
    130 C41        -8.5440   -3.2510   -2.0850 c3        1 MOL      0.397263
    131 C42        -9.6290   -3.6310   -3.0870 c3        1 MOL     -0.471475
    132 O20        -8.9260   -3.6070   -0.8030 oh        1 MOL     -0.632217
    133 H60        -7.3840   -1.1950   -0.3240 hn        1 MOL      0.306186
    134 H61        -7.7230   -1.6340   -3.1660 h1        1 MOL      0.130193
    135 H62        -7.6840   -3.8360   -2.4040 h1        1 MOL      0.021553
    136 H63        -8.3510   -4.2750   -0.4180 ho        1 MOL      0.394739
    137 H64        -9.8150   -4.7000   -3.0270 hc        1 MOL      0.119782
    138 H65       -10.5340   -3.1140   -2.7810 hc        1 MOL      0.119782
    139 H66        -9.2330   -3.4190   -4.0870 hc        1 MOL      0.119782
    140 N12        -9.6800   -0.2820   -0.8430 n         1 MOL     -0.493121
    141 C43       -10.7880    0.6790   -0.6080 c3        1 MOL      0.047360
    142 C44       -10.4460    1.6860    0.5340 c         1 MOL      0.437098
    143 O21       -10.1520    1.2420    1.6280 o         1 MOL     -0.490221
    144 C45       -12.0990   -0.0970   -0.3890 c3        1 MOL     -0.126339
    145 C46       -13.3450    0.8370   -0.3710 c3        1 MOL     -0.286633
    146 C47       -14.5530   -0.0230    0.1260 c3        1 MOL      0.374242
    147 C48       -15.9020    0.6080    0.0360 c3        1 MOL     -0.118166
    148 N13       -16.3940    0.9820   -1.3760 n4        1 MOL     -0.276954
    149 H67        -9.1420   -0.5900   -0.0380 hn        1 MOL      0.288259
    150 H68       -10.7770    1.3320   -1.4760 h1        1 MOL      0.069385
    151 H69       -12.0790   -0.6440    0.5580 hc        1 MOL      0.101620
    152 H70       -12.1290   -0.8690   -1.1550 hc        1 MOL      0.101620
    153 H71       -13.5300    1.2740   -1.3590 hc        1 MOL      0.069209
    154 H72       -13.1450    1.5430    0.4350 hc        1 MOL      0.069209
    155 H73       -14.3430   -0.4960    1.0810 hc        1 MOL     -0.049925
    156 H74       -14.6670   -0.8050   -0.6350 hc        1 MOL     -0.049925
    157 H75       -15.8830    1.4750    0.7040 hx        1 MOL      0.102527
    158 H76       -16.5600   -0.1080    0.5220 hx        1 MOL      0.102527
    159 H77       -15.8380    1.7920   -1.6140 hn        1 MOL      0.254514
    160 H78       -16.1450    0.2960   -2.0710 hn        1 MOL      0.254514
    161 H79       -17.3660    1.2400   -1.4040 hn        1 MOL      0.254514
    162 N14       -10.6260    2.9960    0.4080 n         1 MOL     -0.348511
    163 C49       -10.4640    3.9130    1.5830 c3        1 MOL      0.185165
    164 C50        -8.9620    4.0130    2.0680 c         1 MOL      0.461339
    165 O22        -8.7690    3.7760    3.2250 o         1 MOL     -0.527827
    166 C51       -10.9370    5.3210    1.2880 c3        1 MOL      0.134087
    167 C52       -12.4720    5.3590    1.3890 c3        1 MOL     -0.298328
    168 C53       -12.9960    6.7240    1.1630 c         1 MOL      0.702006
    169 O23       -13.1820    7.6080    2.0540 o         1 MOL     -0.648930
    170 O24       -13.2740    7.1320    0.0340 o         1 MOL     -0.648930
    171 H80       -11.0240    3.3150   -0.4630 hn        1 MOL      0.242829
    172 H81       -11.0790    3.5220    2.3940 h1        1 MOL      0.055811
    173 H82       -10.6650    5.6250    0.2830 hc        1 MOL      0.001385
    174 H83       -10.4590    5.9270    2.0610 hc        1 MOL      0.001385
    175 H84       -12.7270    5.0470    2.4070 hc        1 MOL      0.031972
    176 H85       -12.8490    4.6580    0.6380 hc        1 MOL      0.031972
    177 N15        -7.9360    4.0440    1.2210 n         1 MOL     -0.422694
    178 C54        -7.8890    4.6740   -0.1190 c3        1 MOL      0.021804
    179 H86        -6.8640    4.9670   -0.3460 h1        1 MOL      0.029531
    180 H87        -8.2380    3.9630   -0.8680 h1        1 MOL      0.029531
    181 H88        -8.5290    5.5560   -0.1290 h1        1 MOL      0.029531
    182 H89        -7.0060    3.9680    1.6220 hn        1 MOL      0.308226
    183 Ca1         8.1650    4.6680    0.3670 Ca        1 MOL      1.782576
    184 O25         8.3670    5.9800    3.0060 oh        1 MOL     -0.871727
    185 H90         8.0800    5.2340    3.5270 ho        1 MOL      0.436871
    186 H91         9.2560    6.1710    3.3270 ho        1 MOL      0.436871
    187 O26         9.2540    7.1950    0.2290 oh        1 MOL     -0.871727
    188 H92         9.3760    7.6090    1.0860 ho        1 MOL      0.436871
    189 H93         9.7690    7.7330   -0.3700 ho        1 MOL      0.436871
    190 O27         5.8200    3.8740   -1.7790 oh        1 MOL     -0.871727
    191 H94         5.5810    3.1950   -2.4080 ho        1 MOL      0.436871
    192 H95         4.9970    4.1340   -1.3870 ho        1 MOL      0.436871
    193 O28         9.0310    4.9560   -2.1670 oh        1 MOL     -0.871727
    194 H96         9.2870    5.7860   -2.5690 ho        1 MOL      0.436871
    195 H97         9.1590    4.3060   -2.8580 ho        1 MOL      0.436871
@<TRIPOS>BOND
     1    1    2 1   
     2    1    4 1   
     3    1    5 1   
     4    1    6 1   
     5    2    3 2   
     6    2    7 1   
     7    7    8 1   
     8    7   15 1   
     9    8    9 1   
    10    8   11 1   
    11    8   16 1   
    12    9   10 2   
    13    9   19 1   
    14   11   12 1   
    15   11   17 1   
    16   11   18 1   
    17   12   13 1   
    18   12   14 1   
    19   19   20 1   
    20   19   28 1   
    21   20   21 1   
    22   20   23 1   
    23   20   29 1   
    24   21   22 2   
    25   21   41 1   
    26   23   24 1   
    27   23   30 1   
    28   23   31 1   
    29   24   25 1   
    30   24   32 1   
    31   24   33 1   
    32   25   26 1   
    33   25   34 1   
    34   25   35 1   
    35   26   27 1   
    36   26   36 1   
    37   26   37 1   
    38   27   38 1   
    39   27   39 1   
    40   27   40 1   
    41   41   42 1   
    42   41   49 1   
    43   42   43 1   
    44   42   45 1   
    45   42   50 1   
    46   43   44 2   
    47   43   53 1   
    48   45   46 1   
    49   45   51 1   
    50   45   52 1   
    51   46   47 1   
    52   46   48 1   
    53   53   54 1   
    54   53   57 1   
    55   54   55 1   
    56   54   58 1   
    57   54   59 1   
    58   55   56 2   
    59   55   60 1   
    60   60   61 1   
    61   60   68 1   
    62   61   62 1   
    63   61   64 1   
    64   61   69 1   
    65   62   63 2   
    66   62   72 1   
    67   64   65 1   
    68   64   70 1   
    69   64   71 1   
    70   65   66 1   
    71   65   67 1   
    72   72   73 1   
    73   72   76 1   
    74   73   74 1   
    75   73   77 1   
    76   73   78 1   
    77   74   75 2   
    78   74   79 1   
    79   79   80 1   
    80   79   86 1   
    81   80   81 1   
    82   80   83 1   
    83   80   87 1   
    84   81   82 2   
    85   81   93 1   
    86   83   84 1   
    87   83   85 1   
    88   83   88 1   
    89   84   90 1   
    90   84   91 1   
    91   84   92 1   
    92   85   89 1   
    93   93   94 1   
    94   93  101 1   
    95   94   95 1   
    96   94   97 1   
    97   94  102 1   
    98   95   96 2   
    99   95  112 1   
   100   97   98 1   
   101   97   99 1   
   102   97  103 1   
   103   98  100 1   
   104   98  104 1   
   105   98  105 1   
   106   99  106 1   
   107   99  107 1   
   108   99  108 1   
   109  100  109 1   
   110  100  110 1   
   111  100  111 1   
   112  112  113 1   
   113  112  119 1   
   114  113  114 1   
   115  113  116 1   
   116  113  120 1   
   117  114  115 2   
   118  114  126 1   
   119  116  117 1   
   120  116  118 1   
   121  116  121 1   
   122  117  123 1   
   123  117  124 1   
   124  117  125 1   
   125  118  122 1   
   126  126  127 1   
   127  126  133 1   
   128  127  128 1   
   129  127  130 1   
   130  127  134 1   
   131  128  129 2   
   132  128  140 1   
   133  130  131 1   
   134  130  132 1   
   135  130  135 1   
   136  131  137 1   
   137  131  138 1   
   138  131  139 1   
   139  132  136 1   
   140  140  141 1   
   141  140  149 1   
   142  141  142 1   
   143  141  144 1   
   144  141  150 1   
   145  142  143 2   
   146  142  162 1   
   147  144  145 1   
   148  144  151 1   
   149  144  152 1   
   150  145  146 1   
   151  145  153 1   
   152  145  154 1   
   153  146  147 1   
   154  146  155 1   
   155  146  156 1   
   156  147  148 1   
   157  147  157 1   
   158  147  158 1   
   159  148  159 1   
   160  148  160 1   
   161  148  161 1   
   162  162  163 1   
   163  162  171 1   
   164  163  164 1   
   165  163  166 1   
   166  163  172 1   
   167  164  165 2   
   168  164  177 1   
   169  166  167 1   
   170  166  173 1   
   171  166  174 1   
   172  167  168 1   
   173  167  175 1   
   174  167  176 1   
   175  168  169 1   
   176  168  170 1   
   177  177  178 1   
   178  177  182 1   
   179  178  179 1   
   180  178  180 1   
   181  178  181 1   
   182  184  185 1   
   183  184  186 1   
   184  187  188 1   
   185  187  189 1   
   186  190  191 1   
   187  190  192 1   
   188  193  194 1   
   189  193  195 1   
@<TRIPOS>SUBSTRUCTURE
     1 MOL         1 TEMP              0 ****  ****    0 ROOT
