@<TRIPOS>MOLECULE
MOL
  184   179     1     0     0
SMALL
resp


@<TRIPOS>ATOM
      1 C1         -1.9990   -3.8590   -3.6160 c3        1 MOL     -0.344595
      2 C2         -3.5060   -3.8270   -3.2610 c         1 MOL      0.611972
      3 O1         -4.1600   -2.7790   -3.1430 o         1 MOL     -0.562782
      4 H1         -1.4860   -4.5570   -2.9540 hc        1 MOL      0.090918
      5 H2         -1.8750   -4.1800   -4.6500 hc        1 MOL      0.090918
      6 H3         -1.5750   -2.8630   -3.4910 hc        1 MOL      0.090918
      7 N1         -4.0600   -5.0360   -3.2030 n         1 MOL     -0.442820
      8 C3         -5.4650   -5.4310   -2.7670 c3        1 MOL      0.082768
      9 C4         -5.6710   -5.0640   -1.2840 c         1 MOL      0.659067
     10 O2         -5.3620   -5.8250   -0.3820 o         1 MOL     -0.500935
     11 C5         -5.7730   -6.9490   -3.0910 c3        1 MOL     -0.340852
     12 C6         -7.2260   -7.5050   -2.8620 c         1 MOL      0.752495
     13 O3         -7.3740   -8.6670   -2.5200 o         1 MOL     -0.714670
     14 O4         -8.2280   -6.7460   -2.8480 o         1 MOL     -0.714670
     15 H4         -3.4030   -5.7560   -3.4670 hn        1 MOL      0.257200
     16 H5         -6.1820   -4.9040   -3.4030 h1        1 MOL      0.028288
     17 H6         -5.0900   -7.5640   -2.4960 hc        1 MOL      0.058450
     18 H7         -5.5720   -7.0110   -4.1620 hc        1 MOL      0.058450
     19 N2         -6.0840   -3.8160   -0.9840 n         1 MOL     -0.650241
     20 C7         -6.4580   -3.3610    0.3100 c3        1 MOL      0.354464
     21 C8         -5.3120   -2.4340    0.9150 c         1 MOL      0.585374
     22 O5         -5.2160   -1.2960    0.4560 o         1 MOL     -0.569746
     23 C9         -7.8000   -2.7480    0.2000 c3        1 MOL     -0.467886
     24 H8         -5.9830   -3.0900   -1.6650 hn        1 MOL      0.321522
     25 H9         -6.5700   -4.2050    0.9920 h1        1 MOL      0.035686
     26 H10        -8.4560   -3.6060    0.1250 hc        1 MOL      0.114261
     27 H11        -8.1340   -2.2700    1.1200 hc        1 MOL      0.114261
     28 H12        -7.7110   -2.0920   -0.6710 hc        1 MOL      0.114261
     29 N3         -4.6350   -2.8560    2.0270 n         1 MOL     -0.527385
     30 C10        -3.6940   -2.0610    2.7900 c3        1 MOL      0.147984
     31 C11        -4.2910   -0.9300    3.6580 c         1 MOL      0.493813
     32 O6         -5.2940   -1.0740    4.3950 o         1 MOL     -0.521945
     33 C12        -2.8980   -3.0250    3.7400 c3        1 MOL     -0.140193
     34 C13        -2.2770   -4.3250    3.1950 c         1 MOL      0.633217
     35 O7         -1.0240   -4.3770    3.0820 o         1 MOL     -0.654403
     36 O8         -3.0630   -5.2720    2.9000 o         1 MOL     -0.654403
     37 H13        -4.7920   -3.8150    2.2730 hn        1 MOL      0.265534
     38 H14        -2.9960   -1.5410    2.1300 h1        1 MOL      0.027149
     39 H15        -3.6230   -3.2570    4.5190 hc        1 MOL      0.014052
     40 H16        -2.1860   -2.4580    4.3430 hc        1 MOL      0.014052
     41 N4         -3.6240    0.2140    3.6530 n         1 MOL     -0.378105
     42 C14        -3.7180    1.2910    4.7080 c3        1 MOL     -0.047668
     43 C15        -4.5630    2.5530    4.3470 c         1 MOL      0.557032
     44 O9         -5.4920    2.9450    5.0250 o         1 MOL     -0.501774
     45 H17        -2.8340    0.3380    3.0290 hn        1 MOL      0.274877
     46 H18        -2.6820    1.6300    4.7590 h1        1 MOL      0.059826
     47 H19        -4.1030    0.9420    5.6700 h1        1 MOL      0.059826
     48 N5         -4.2250    3.2100    3.2470 n         1 MOL     -0.439023
     49 C16        -4.8230    4.4780    2.7650 c3        1 MOL      0.154012
     50 C17        -4.5690    4.5720    1.2750 c         1 MOL      0.372163
     51 O10        -3.7350    3.9770    0.6820 o         1 MOL     -0.380992
     52 C18        -4.1340    5.6480    3.4970 c3        1 MOL     -0.144231
     53 C19        -4.2410    5.6500    4.9820 c         1 MOL      0.635566
     54 N6         -3.1800    5.3190    5.6610 n         1 MOL     -0.843292
     55 O11        -5.3380    6.0170    5.4830 o         1 MOL     -0.559060
     56 H20        -3.4410    2.8730    2.7160 hn        1 MOL      0.234458
     57 H21        -5.8730    4.6110    3.0130 h1        1 MOL      0.060055
     58 H22        -4.6030    6.5910    3.1930 hc        1 MOL      0.034786
     59 H23        -3.0830    5.7430    3.2260 hc        1 MOL      0.034786
     60 H24        -2.2850    5.1360    5.2330 hn        1 MOL      0.385650
     61 H25        -3.2710    5.4780    6.6600 hn        1 MOL      0.385650
     62 N7         -5.3800    5.4300    0.6900 n         1 MOL     -0.280644
     63 C20        -5.3070    5.7180   -0.7340 c3        1 MOL     -0.345723
     64 C21        -3.8760    6.2720   -1.2610 c         1 MOL      0.630595
     65 O12        -2.9490    6.6420   -0.5010 o         1 MOL     -0.499145
     66 H26        -6.1270    5.8170    1.2460 hn        1 MOL      0.280269
     67 H27        -6.0680    6.4900   -0.8690 h1        1 MOL      0.149025
     68 H28        -5.5140    4.7970   -1.2810 h1        1 MOL      0.149025
     69 N8         -3.6580    6.3240   -2.5970 n         1 MOL     -0.413105
     70 C22        -2.4310    6.8950   -3.1880 c3        1 MOL     -0.459383
     71 C23        -1.2030    6.0060   -3.2700 c         1 MOL      0.688067
     72 O13        -0.1580    6.4710   -3.5790 o         1 MOL     -0.576147
     73 C24        -2.8040    7.5420   -4.5390 c3        1 MOL      0.511119
     74 C25        -3.1430    6.6310   -5.7150 c3        1 MOL     -0.335189
     75 O14        -3.8360    8.5020   -4.4370 oh        1 MOL     -0.603068
     76 H29        -4.4600    6.3220   -3.2200 hn        1 MOL      0.242188
     77 H30        -2.1200    7.6820   -2.4940 h1        1 MOL      0.207632
     78 H31        -1.9180    8.1050   -4.8250 h1        1 MOL      0.029863
     79 H32        -4.5590    7.9580   -4.1150 ho        1 MOL      0.361557
     80 H33        -3.9830    5.9800   -5.4370 hc        1 MOL      0.078039
     81 H34        -3.3530    7.2100   -6.6040 hc        1 MOL      0.078039
     82 H35        -2.3010    5.9750   -5.9440 hc        1 MOL      0.078039
     83 N9         -1.2200    4.7030   -2.9140 n         1 MOL     -0.347211
     84 C26        -0.0330    3.7800   -2.7760 c3        1 MOL     -0.079478
     85 C27        -0.1170    2.9430   -1.4820 c         1 MOL      0.671734
     86 O15        -1.0940    2.9250   -0.7440 o         1 MOL     -0.497070
     87 C28         0.1450    2.8980   -4.0750 c3        1 MOL      0.132885
     88 C29        -0.7660    1.6320   -4.0690 c3        1 MOL     -0.024875
     89 C30         0.0920    3.7290   -5.3950 c3        1 MOL     -0.375910
     90 C31        -2.3020    1.8890   -4.2410 c3        1 MOL      0.244053
     91 H36        -2.0480    4.3640   -2.4500 hn        1 MOL      0.246778
     92 H37         0.8610    4.4070   -2.7440 h1        1 MOL      0.076968
     93 H38         1.1690    2.5230   -4.0990 hc        1 MOL     -0.018937
     94 H39        -0.5680    0.9940   -3.2170 hc        1 MOL     -0.003341
     95 H40        -0.4790    1.1460   -5.0010 hc        1 MOL     -0.003341
     96 H41         0.4380    3.1040   -6.2160 hc        1 MOL      0.101284
     97 H42        -0.8890    4.1550   -5.5800 hc        1 MOL      0.101284
     98 H43         0.8370    4.5200   -5.3930 hc        1 MOL      0.101284
     99 H44        -2.8320    0.9490   -4.3560 hc        1 MOL     -0.060132
    100 H45        -2.7330    2.4190   -3.3940 hc        1 MOL     -0.060132
    101 H46        -2.5530    2.4400   -5.1490 hc        1 MOL     -0.060132
    102 N10         0.9730    2.2290   -1.2870 n         1 MOL     -0.754536
    103 C32         1.2150    1.1640   -0.3560 c3        1 MOL      0.274807
    104 C33         2.6130    1.1600    0.2920 c         1 MOL      0.449540
    105 O16         2.7270    0.6620    1.4040 o         1 MOL     -0.569830
    106 C34         0.8910   -0.1540   -1.0360 c3        1 MOL     -0.326805
    107 C35         0.9630   -1.4010   -0.2390 c         1 MOL      0.737787
    108 O17         1.9690   -2.2110   -0.2880 o         1 MOL     -0.727304
    109 O18         0.1280   -1.6030    0.7150 o         1 MOL     -0.727304
    110 H47         1.6770    2.2510   -2.0110 hn        1 MOL      0.342728
    111 H48         0.4350    1.2910    0.3980 h1        1 MOL      0.096134
    112 H49         1.6150   -0.2250   -1.8430 hc        1 MOL      0.099260
    113 H50        -0.0840   -0.1300   -1.5330 hc        1 MOL      0.099260
    114 N11         3.6250    1.7820   -0.2600 n         1 MOL     -0.312894
    115 C36         4.9390    1.9870    0.3460 c3        1 MOL      0.370839
    116 C37         6.0520    1.0000   -0.0430 c         1 MOL      0.284902
    117 O19         6.3020    0.8050   -1.2220 o         1 MOL     -0.478753
    118 C38         5.4030    3.4630    0.0980 c3        1 MOL     -0.335094
    119 C39         6.3740    3.9240    1.0820 ca        1 MOL      0.149203
    120 C40         6.0660    4.6430    2.2590 ca        1 MOL     -0.210383
    121 C41         7.7320    3.4440    0.9730 ca        1 MOL     -0.210383
    122 C42         6.9790    4.8700    3.2730 ca        1 MOL     -0.077306
    123 C43         8.6750    3.7060    1.9610 ca        1 MOL     -0.077306
    124 C44         8.2840    4.3890    3.1250 ca        1 MOL     -0.154272
    125 H51         3.3850    2.3380   -1.0630 hn        1 MOL      0.188354
    126 H52         4.8020    1.7930    1.4070 h1        1 MOL     -0.019693
    127 H53         4.4640    4.0100    0.2420 hc        1 MOL      0.112831
    128 H54         5.8340    3.4690   -0.9020 hc        1 MOL      0.112831
    129 H55         5.0100    4.8560    2.3810 ha        1 MOL      0.131471
    130 H56         8.1180    2.9580    0.0880 ha        1 MOL      0.131471
    131 H57         6.6680    5.3270    4.2000 ha        1 MOL      0.109267
    132 H58         9.6940    3.3940    1.8160 ha        1 MOL      0.109267
    133 H59         9.0780    4.5060    3.8510 ha        1 MOL      0.104039
    134 N12         6.7920    0.3900    0.9310 n         1 MOL     -0.150243
    135 C45         8.0830   -0.3400    0.6110 c3        1 MOL      0.362167
    136 C46         8.0880   -1.3690   -0.5130 c         1 MOL      0.123737
    137 O20         9.0090   -1.3130   -1.3930 o         1 MOL     -0.513602
    138 C47         8.4910   -1.1240    1.8290 c3        1 MOL     -0.007859
    139 C48         7.9500   -0.2060    2.8890 c3        1 MOL      0.173402
    140 C49         6.6670    0.4560    2.3940 c3        1 MOL     -0.201778
    141 H60         8.9060    0.3510    0.4080 h1        1 MOL     -0.000186
    142 H61         8.0440   -2.1120    1.9400 hc        1 MOL      0.004657
    143 H62         9.5650   -1.1800    2.0230 hc        1 MOL      0.004657
    144 H63         7.7800   -0.6810    3.8560 hc        1 MOL     -0.047241
    145 H64         8.7030    0.5680    2.9550 hc        1 MOL     -0.047241
    146 H65         5.8550   -0.1780    2.7530 h1        1 MOL      0.095155
    147 H66         6.5640    1.5020    2.6790 h1        1 MOL      0.095155
    148 N13         7.1420   -2.2780   -0.5740 n         1 MOL     -0.102119
    149 C50         7.0920   -3.2170   -1.6950 c3        1 MOL     -0.214836
    150 C51         6.7860   -2.5700   -3.1050 c         1 MOL      0.551041
    151 O21         7.1500   -3.1190   -4.1300 o         1 MOL     -0.569753
    152 C52         6.1580   -4.3330   -1.2730 c3        1 MOL     -0.092897
    153 C53         4.7550   -3.8120   -1.0840 c3        1 MOL      0.321561
    154 C54         3.7060   -4.8710   -0.7200 c         1 MOL      0.523084
    155 O22         3.2740   -4.7830    0.4730 o         1 MOL     -0.679077
    156 O23         3.4060   -5.7830   -1.5590 o         1 MOL     -0.679077
    157 H67         6.3140   -2.0860   -0.0250 hn        1 MOL      0.177713
    158 H68         8.1170   -3.5980   -1.7480 h1        1 MOL      0.142913
    159 H69         6.5070   -4.8240   -0.3570 hc        1 MOL      0.023762
    160 H70         6.2000   -4.9790   -2.1430 hc        1 MOL      0.023762
    161 H71         4.4010   -3.4160   -2.0370 hc        1 MOL     -0.090474
    162 H72         4.7850   -3.0290   -0.3210 hc        1 MOL     -0.090474
    163 N14         6.0890   -1.4620   -3.1090 n         1 MOL     -0.061631
    164 C55         5.6170   -0.8560   -4.3280 c3        1 MOL     -0.214362
    165 H73         4.7310   -1.3860   -4.6770 h1        1 MOL      0.085246
    166 H74         5.3650    0.1880   -4.1410 h1        1 MOL      0.085246
    167 H75         6.3970   -0.9130   -5.0880 h1        1 MOL      0.085246
    168 H76         5.9000   -1.1650   -2.1700 hn        1 MOL      0.103675
    169 Ca1         1.2000   -3.8560    1.8180 Ca        1 MOL      1.708070
    170 O24         3.3250   -4.5070    3.3310 oh        1 MOL     -0.818710
    171 H77         2.9780   -5.0390    4.0580 ho        1 MOL      0.396317
    172 H78         4.1800   -4.8870    3.1520 ho        1 MOL      0.396317
    173 O25        -0.1310   -5.1480   -0.0240 oh        1 MOL     -0.818710
    174 H79        -1.0320   -5.4560   -0.0670 ho        1 MOL      0.396317
    175 H80         0.2970   -5.5430   -0.7800 ho        1 MOL      0.396317
    176 O26         1.0650   -2.1920    3.7820 oh        1 MOL     -0.818710
    177 H81         0.7250   -1.2980    3.8050 ho        1 MOL      0.396317
    178 H82         1.5010   -2.3160    4.6200 ho        1 MOL      0.396317
    179 O27         1.0830   -6.3390    2.5290 oh        1 MOL     -0.818710
    180 H83         1.4280   -6.9040    1.8420 ho        1 MOL      0.396317
    181 H84         0.5240   -6.9170    3.0500 ho        1 MOL      0.396317
    182 O28         3.5860   -1.9660    1.6590 oh        1 MOL     -0.818710
    183 H85         3.5120   -1.1670    2.1790 ho        1 MOL      0.396317
    184 H86         3.1220   -1.7700    0.8490 ho        1 MOL      0.396317
@<TRIPOS>BOND
     1    1    2 1   
     2    1    4 1   
     3    1    5 1   
     4    1    6 1   
     5    2    3 2   
     6    2    7 1   
     7    7    8 1   
     8    7   15 1   
     9    8    9 1   
    10    8   11 1   
    11    8   16 1   
    12    9   10 2   
    13    9   19 1   
    14   11   12 1   
    15   11   17 1   
    16   11   18 1   
    17   12   13 1   
    18   12   14 1   
    19   19   20 1   
    20   19   24 1   
    21   20   21 1   
    22   20   23 1   
    23   20   25 1   
    24   21   22 2   
    25   21   29 1   
    26   23   26 1   
    27   23   27 1   
    28   23   28 1   
    29   29   30 1   
    30   29   37 1   
    31   30   31 1   
    32   30   33 1   
    33   30   38 1   
    34   31   32 2   
    35   31   41 1   
    36   33   34 1   
    37   33   39 1   
    38   33   40 1   
    39   34   35 1   
    40   34   36 1   
    41   41   42 1   
    42   41   45 1   
    43   42   43 1   
    44   42   46 1   
    45   42   47 1   
    46   43   44 2   
    47   43   48 1   
    48   48   49 1   
    49   48   56 1   
    50   49   50 1   
    51   49   52 1   
    52   49   57 1   
    53   50   51 2   
    54   50   62 1   
    55   52   53 1   
    56   52   58 1   
    57   52   59 1   
    58   53   54 1   
    59   53   55 2   
    60   54   60 1   
    61   54   61 1   
    62   62   63 1   
    63   62   66 1   
    64   63   64 1   
    65   63   67 1   
    66   63   68 1   
    67   64   65 2   
    68   64   69 1   
    69   69   70 1   
    70   69   76 1   
    71   70   71 1   
    72   70   73 1   
    73   70   77 1   
    74   71   72 2   
    75   71   83 1   
    76   73   74 1   
    77   73   75 1   
    78   73   78 1   
    79   74   80 1   
    80   74   81 1   
    81   74   82 1   
    82   75   79 1   
    83   83   84 1   
    84   83   91 1   
    85   84   85 1   
    86   84   87 1   
    87   84   92 1   
    88   85   86 2   
    89   85  102 1   
    90   87   88 1   
    91   87   89 1   
    92   87   93 1   
    93   88   90 1   
    94   88   94 1   
    95   88   95 1   
    96   89   96 1   
    97   89   97 1   
    98   89   98 1   
    99   90   99 1   
   100   90  100 1   
   101   90  101 1   
   102  102  103 1   
   103  102  110 1   
   104  103  104 1   
   105  103  106 1   
   106  103  111 1   
   107  104  105 2   
   108  104  114 1   
   109  106  107 1   
   110  106  112 1   
   111  106  113 1   
   112  107  108 1   
   113  107  109 1   
   114  114  115 1   
   115  114  125 1   
   116  115  116 1   
   117  115  118 1   
   118  115  126 1   
   119  116  117 2   
   120  116  134 1   
   121  118  119 1   
   122  118  127 1   
   123  118  128 1   
   124  119  120 ar  
   125  119  121 ar  
   126  120  122 ar  
   127  120  129 1   
   128  121  123 ar  
   129  121  130 1   
   130  122  124 ar  
   131  122  131 1   
   132  123  124 ar  
   133  123  132 1   
   134  124  133 1   
   135  134  135 1   
   136  134  140 1   
   137  135  136 1   
   138  135  138 1   
   139  135  141 1   
   140  136  137 2   
   141  136  148 1   
   142  138  139 1   
   143  138  142 1   
   144  138  143 1   
   145  139  140 1   
   146  139  144 1   
   147  139  145 1   
   148  140  146 1   
   149  140  147 1   
   150  148  149 1   
   151  148  157 1   
   152  149  150 1   
   153  149  152 1   
   154  149  158 1   
   155  150  151 2   
   156  150  163 1   
   157  152  153 1   
   158  152  159 1   
   159  152  160 1   
   160  153  154 1   
   161  153  161 1   
   162  153  162 1   
   163  154  155 1   
   164  154  156 1   
   165  163  164 1   
   166  163  168 1   
   167  164  165 1   
   168  164  166 1   
   169  164  167 1   
   170  170  171 1   
   171  170  172 1   
   172  173  174 1   
   173  173  175 1   
   174  176  177 1   
   175  176  178 1   
   176  179  180 1   
   177  179  181 1   
   178  182  183 1   
   179  182  184 1   
@<TRIPOS>SUBSTRUCTURE
     1 MOL         1 TEMP              0 ****  ****    0 ROOT
