@<TRIPOS>MOLECULE
MOL
  189   185     1     0     0
SMALL
resp


@<TRIPOS>ATOM
      1 C1          4.3160    4.1190   -3.4080 c3        1 MOL     -0.291582
      2 C2          5.0230    3.1830   -2.3650 c         1 MOL      0.704404
      3 O1          4.3730    2.7530   -1.4230 o         1 MOL     -0.716800
      4 H1          3.2850    4.2950   -3.0980 hc        1 MOL      0.070355
      5 H2          4.8460    5.0710   -3.4610 hc        1 MOL      0.070355
      6 H3          4.3230    3.6430   -4.3880 hc        1 MOL      0.070355
      7 N1          6.2740    2.7600   -2.5930 n         1 MOL     -0.547447
      8 C3          7.0290    1.7320   -1.8950 c3        1 MOL      0.159817
      9 C4          6.2660    0.5400   -1.5210 c         1 MOL      0.230338
     10 O2          5.9120    0.3220   -0.3310 o         1 MOL     -0.214274
     11 C5          7.9960    2.2670   -0.8320 c3        1 MOL     -0.274678
     12 C6          7.3500    2.9710    0.4750 c         1 MOL      0.651589
     13 O3          6.1250    3.3260    0.4690 o         1 MOL     -0.658997
     14 O4          8.1020    3.2410    1.3930 o         1 MOL     -0.658997
     15 H4          6.6430    3.0630   -3.4910 hn        1 MOL      0.291629
     16 H5          7.7020    1.4120   -2.6930 h1        1 MOL      0.028578
     17 H6          8.5640    3.0800   -1.2800 hc        1 MOL      0.071669
     18 H7          8.6470    1.5600   -0.3250 hc        1 MOL      0.071669
     19 N2          5.8880   -0.2170   -2.5680 n         1 MOL     -0.417279
     20 C7          5.1240   -1.4580   -2.5760 c3        1 MOL      0.062109
     21 C8          5.8200   -2.6220   -1.8400 c         1 MOL      0.443524
     22 O5          6.0060   -3.7050   -2.3690 o         1 MOL     -0.555364
     23 C9          3.6040   -1.2330   -2.3610 c3        1 MOL      0.246732
     24 C10         2.7810   -2.5290   -2.5850 c3        1 MOL      0.102289
     25 C11         2.9760   -0.0140   -3.2320 c3        1 MOL     -0.255568
     26 C12         2.7760   -2.9310   -3.9740 c3        1 MOL     -0.222303
     27 H8          6.0040    0.2490   -3.4610 hn        1 MOL      0.279226
     28 H9          5.2950   -1.7410   -3.6130 h1        1 MOL      0.037525
     29 H10         3.4090   -1.0260   -1.3110 hc        1 MOL     -0.166232
     30 H11         1.7380   -2.3110   -2.3560 hc        1 MOL      0.025034
     31 H12         3.1580   -3.3660   -1.9970 hc        1 MOL      0.025034
     32 H13         3.2540    0.9420   -2.7900 hc        1 MOL      0.045292
     33 H14         3.3640   -0.0430   -4.2450 hc        1 MOL      0.045292
     34 H15         1.8900   -0.0450   -3.2160 hc        1 MOL      0.045292
     35 H16         3.7270   -3.3290   -4.3180 hc        1 MOL      0.022494
     36 H17         2.0270   -3.7120   -4.0690 hc        1 MOL      0.022494
     37 H18         2.3920   -2.1560   -4.6400 hc        1 MOL      0.022494
     38 N3          6.2120   -2.4270   -0.5860 n         1 MOL     -0.202820
     39 C13         7.0080   -3.5300    0.0250 c3        1 MOL      0.106736
     40 C14         6.3040   -4.8720    0.3240 c         1 MOL      0.610948
     41 O6          6.9080   -5.9120    0.0620 o         1 MOL     -0.612582
     42 C15         7.5030   -2.9420    1.2900 c3        1 MOL     -0.327573
     43 C16         8.4200   -1.7790    1.0150 c         1 MOL      0.761627
     44 O7          9.2460   -1.8610    0.0870 o         1 MOL     -0.705816
     45 O8          8.3810   -0.8300    1.8010 o         1 MOL     -0.705816
     46 H19         5.9890   -1.6070   -0.0400 hn        1 MOL      0.213530
     47 H20         7.8710   -3.7510   -0.6000 h1        1 MOL      0.032881
     48 H21         8.0630   -3.7030    1.8380 hc        1 MOL      0.087891
     49 H22         6.6590   -2.6330    1.9050 hc        1 MOL      0.087891
     50 N4          5.1070   -5.0000    0.8320 n         1 MOL     -0.555936
     51 C17         4.1370   -4.0900    1.4510 c3        1 MOL      0.034572
     52 C18         4.3630   -3.5790    2.8780 c         1 MOL      0.492589
     53 O9          5.1830   -3.9360    3.6500 o         1 MOL     -0.545081
     54 H23         4.6960   -5.9250    0.8310 hn        1 MOL      0.299243
     55 H24         3.1690   -4.5650    1.5270 h1        1 MOL      0.092105
     56 H25         4.1070   -3.2540    0.7530 h1        1 MOL      0.092105
     57 N5          3.4720   -2.6980    3.3380 n         1 MOL     -0.334949
     58 C19         2.2850   -2.1060    2.7070 c3        1 MOL      0.028782
     59 C20         2.5760   -1.2000    1.4650 c         1 MOL      0.051011
     60 O10         3.6760   -0.7440    1.2310 o         1 MOL     -0.501668
     61 C21         1.7690   -1.1350    3.7330 c3        1 MOL     -0.396426
     62 C22         2.6690    0.0470    4.1110 c         1 MOL      0.840571
     63 O11         3.3270    0.1130    5.1390 o         1 MOL     -0.696767
     64 O12         2.7220    1.0010    3.2900 o         1 MOL     -0.696767
     65 H26         3.5590   -2.5880    4.3350 hn        1 MOL      0.278878
     66 H27         1.5270   -2.8600    2.5030 h1        1 MOL      0.088122
     67 H28         1.5620   -1.6550    4.6670 hc        1 MOL      0.096016
     68 H29         0.8630   -0.6960    3.3180 hc        1 MOL      0.096016
     69 N6          1.5170   -1.0620    0.5890 n         1 MOL     -0.286025
     70 C23         0.0730   -1.4280    0.6770 c3        1 MOL     -0.084835
     71 C24        -0.2560   -2.7720    0.1690 c         1 MOL      0.492410
     72 O13         0.5720   -3.5780   -0.2980 o         1 MOL     -0.521584
     73 H30         1.7560   -0.6910   -0.3180 hn        1 MOL      0.379413
     74 H31        -0.5210   -0.7180    0.1080 h1        1 MOL      0.119479
     75 H32        -0.3430   -1.2010    1.6570 h1        1 MOL      0.119479
     76 N7         -1.5860   -3.1190    0.3400 n         1 MOL     -0.422823
     77 C25        -2.2760   -4.3230   -0.1790 c3        1 MOL      0.124473
     78 C26        -2.7360   -4.2290   -1.6770 c         1 MOL      0.263573
     79 O14        -2.8190   -5.2360   -2.4630 o         1 MOL     -0.520759
     80 C27        -3.3130   -4.8610    0.8310 c3        1 MOL      0.005491
     81 C28        -4.5580   -3.9840    0.8190 c3        1 MOL     -0.234208
     82 C29        -5.6300   -4.2940    1.8620 c         1 MOL      0.581081
     83 N8         -6.8720   -3.9720    1.6830 n         1 MOL     -0.786144
     84 O15        -5.4530   -4.6300    3.0090 o         1 MOL     -0.551023
     85 H33        -2.1500   -2.4970    0.8940 hn        1 MOL      0.212369
     86 H34        -1.5150   -5.1000   -0.1600 h1        1 MOL      0.081939
     87 H35        -2.9680   -4.8950    1.8610 hc        1 MOL      0.021349
     88 H36        -3.4690   -5.8960    0.5110 hc        1 MOL      0.021349
     89 H37        -4.8600   -3.9850   -0.2270 hc        1 MOL      0.121615
     90 H38        -4.2480   -3.0100    1.1960 hc        1 MOL      0.121615
     91 H39        -7.2490   -3.5130    0.8690 hn        1 MOL      0.365883
     92 H40        -7.5270   -4.2480    2.4040 hn        1 MOL      0.365883
     93 N9         -3.0950   -3.0340   -2.0560 n         1 MOL      0.093773
     94 C30        -3.4470   -2.6860   -3.5010 c3        1 MOL     -0.472373
     95 C31        -4.6690   -1.7960   -3.5980 c         1 MOL      0.686122
     96 O16        -4.9980   -1.4280   -4.7140 o         1 MOL     -0.572223
     97 C32        -2.2890   -1.8550   -4.1040 c3        1 MOL      0.263202
     98 C33        -1.1480   -2.8940   -4.3150 c3        1 MOL     -0.284499
     99 C34        -1.7350   -0.6200   -3.4230 c3        1 MOL     -0.284499
    100 H41        -2.9890   -2.3050   -1.3780 hn        1 MOL      0.110850
    101 H42        -3.6370   -3.5630   -4.1290 h1        1 MOL      0.209473
    102 H43        -2.4460   -1.5350   -5.1390 hc        1 MOL      0.024557
    103 H44        -0.4150   -2.5640   -5.0470 hc        1 MOL      0.077282
    104 H45        -0.6040   -2.9730   -3.3670 hc        1 MOL      0.077282
    105 H46        -1.4700   -3.9000   -4.5430 hc        1 MOL      0.077282
    106 H47        -2.5230    0.1250   -3.3080 hc        1 MOL      0.077282
    107 H48        -1.3430   -0.9240   -2.4520 hc        1 MOL      0.077282
    108 H49        -0.8840   -0.3150   -4.0330 hc        1 MOL      0.077282
    109 N10        -5.3910   -1.3880   -2.5120 n         1 MOL     -0.414204
    110 C35        -6.5690   -0.4600   -2.6730 c3        1 MOL      0.082176
    111 C36        -6.6820    0.6910   -1.5880 c         1 MOL      0.503709
    112 O17        -7.5860    1.5460   -1.7500 o         1 MOL     -0.542395
    113 C37        -7.8790   -1.2950   -2.6430 c3        1 MOL     -0.263127
    114 C38        -8.1680   -2.1250   -1.4350 c         1 MOL      0.728659
    115 N11        -9.4320   -2.5700   -1.2150 n         1 MOL     -0.900825
    116 O18        -7.2400   -2.6450   -0.7900 o         1 MOL     -0.555619
    117 H50        -5.3830   -1.8500   -1.6210 hn        1 MOL      0.151190
    118 H51        -6.6200    0.0060   -3.6640 h1        1 MOL      0.118904
    119 H52        -7.9440   -2.0270   -3.4550 hc        1 MOL      0.087008
    120 H53        -8.7530   -0.6620   -2.7430 hc        1 MOL      0.087008
    121 H54       -10.1320   -2.3920   -1.9210 hn        1 MOL      0.389317
    122 H55        -9.6390   -3.2390   -0.4840 hn        1 MOL      0.389317
    123 N12        -5.8770    0.6660   -0.4970 n         1 MOL     -0.586235
    124 C39        -5.7750    1.6810    0.5340 c3        1 MOL      0.325997
    125 C40        -4.4480    2.5250    0.4720 c         1 MOL      0.624788
    126 O19        -3.3690    2.0570    0.0920 o         1 MOL     -0.549984
    127 C41        -6.1460    1.1200    1.9280 c3        1 MOL     -0.348570
    128 C42        -7.2820    0.1180    2.0680 ca        1 MOL      0.046444
    129 C43        -7.2360   -0.7960    3.1650 ca        1 MOL     -0.028802
    130 C44        -8.4860    0.3790    1.3760 ca        1 MOL     -0.028802
    131 C45        -8.4070   -1.4750    3.4530 ca        1 MOL     -0.395446
    132 C46        -9.6170   -0.3240    1.7690 ca        1 MOL     -0.395446
    133 C47        -9.6410   -1.2570    2.8100 ca        1 MOL      0.433147
    134 O20       -10.6840   -2.0090    3.0930 oh        1 MOL     -0.492912
    135 H56        -5.2310   -0.1070   -0.4410 hn        1 MOL      0.297938
    136 H57        -6.6490    2.3130    0.3900 h1        1 MOL     -0.032329
    137 H58        -6.2760    1.9900    2.5800 hc        1 MOL      0.123725
    138 H59        -5.2350    0.5790    2.1630 hc        1 MOL      0.123725
    139 H60        -6.3240   -0.9920    3.7010 ha        1 MOL      0.153272
    140 H61        -8.5830    1.0830    0.5620 ha        1 MOL      0.153272
    141 H62        -8.4150   -2.2280    4.2350 ha        1 MOL      0.143922
    142 H63       -10.5350   -0.2830    1.2000 ha        1 MOL      0.143922
    143 H64       -11.5320   -1.6420    2.8530 ho        1 MOL      0.353653
    144 N13        -4.5250    3.7710    0.9520 n         1 MOL     -0.743630
    145 C48        -3.4170    4.7260    1.1250 c3        1 MOL      0.210604
    146 C49        -2.4230    4.9500   -0.0220 c         1 MOL      0.415335
    147 O21        -1.7160    5.9650    0.0830 o         1 MOL     -0.519267
    148 C50        -2.7250    4.4500    2.4480 c3        1 MOL      0.286276
    149 C51        -3.6470    4.3790    3.6770 c3        1 MOL     -0.272355
    150 C52        -2.9550    4.2920    4.9960 c         1 MOL      0.685116
    151 O22        -2.4630    3.2340    5.4050 o         1 MOL     -0.705702
    152 O23        -2.6950    5.3560    5.5870 o         1 MOL     -0.705702
    153 H65        -5.4220    4.0520    1.3000 hn        1 MOL      0.369680
    154 H66        -3.8230    5.7150    1.3200 h1        1 MOL      0.020579
    155 H67        -2.1300    5.3430    2.6800 hc        1 MOL      0.003976
    156 H68        -2.0980    3.5620    2.3810 hc        1 MOL      0.003976
    157 H69        -4.3490    3.5480    3.5900 hc        1 MOL     -0.013613
    158 H70        -4.2990    5.2510    3.6690 hc        1 MOL     -0.013613
    159 N14        -2.3220    4.1030   -1.0870 n         1 MOL     -0.535916
    160 C53        -1.2310    4.2970   -2.0730 c3        1 MOL     -0.059031
    161 C54        -1.5690    5.1740   -3.1920 c         1 MOL      0.570653
    162 O24        -0.8840    5.3100   -4.2520 o         1 MOL     -0.564992
    163 C55        -0.5880    3.0150   -2.4150 c3        1 MOL      0.098412
    164 C56        -0.0860    2.1570   -1.2100 c3        1 MOL      0.326279
    165 C57         1.1200    2.6810   -0.4670 c         1 MOL      0.558851
    166 O25         1.9820    1.7930   -0.1850 o         1 MOL     -0.600690
    167 O26         1.1590    3.8290   -0.0210 o         1 MOL     -0.600690
    168 H71        -2.9100    3.2880   -1.0610 hn        1 MOL      0.290521
    169 H72        -0.4220    4.8080   -1.5480 h1        1 MOL      0.128842
    170 H73         0.2450    3.2110   -3.0910 hc        1 MOL     -0.032524
    171 H74        -1.2650    2.3870   -2.9920 hc        1 MOL     -0.032524
    172 H75         0.0940    1.1350   -1.5560 hc        1 MOL     -0.136122
    173 H76        -0.9510    2.1440   -0.5480 hc        1 MOL     -0.136122
    174 N15        -2.8190    5.7040   -3.1160 n         1 MOL     -0.371012
    175 C58        -3.3260    6.6960   -4.1430 c3        1 MOL     -0.119902
    176 H77        -3.8710    6.1630   -4.9220 h1        1 MOL      0.067929
    177 H78        -3.9900    7.4120   -3.6600 h1        1 MOL      0.067929
    178 H79        -2.4820    7.2230   -4.5860 h1        1 MOL      0.067929
    179 H80        -3.2710    5.8090   -2.2270 hn        1 MOL      0.285122
    180 Ca1         4.2540    1.8690    1.1100 Ca        1 MOL      1.718209
    181 O27         6.3380    0.6800    2.6270 oh        1 MOL     -0.795553
    182 H81         6.9660    0.0030    2.3600 ho        1 MOL      0.373999
    183 H82         6.3190    0.6110    3.5810 ho        1 MOL      0.373999
    184 O28         4.6350    3.2570    3.2920 oh        1 MOL     -0.795553
    185 H83         5.5130    3.3750    3.6330 ho        1 MOL      0.373999
    186 H84         4.1190    2.9560    4.0390 ho        1 MOL      0.373999
    187 O29         3.4180    4.4070    1.0830 oh        1 MOL     -0.795553
    188 H85         2.6600    4.1900    0.5530 ho        1 MOL      0.373999
    189 H86         3.9080    5.0340    0.5480 ho        1 MOL      0.373999
@<TRIPOS>BOND
     1    1    2 1   
     2    1    4 1   
     3    1    5 1   
     4    1    6 1   
     5    2    3 2   
     6    2    7 1   
     7    7    8 1   
     8    7   15 1   
     9    8    9 1   
    10    8   11 1   
    11    8   16 1   
    12    9   10 2   
    13    9   19 1   
    14   11   12 1   
    15   11   17 1   
    16   11   18 1   
    17   12   13 1   
    18   12   14 1   
    19   19   20 1   
    20   19   27 1   
    21   20   21 1   
    22   20   23 1   
    23   20   28 1   
    24   21   22 2   
    25   21   38 1   
    26   23   24 1   
    27   23   25 1   
    28   23   29 1   
    29   24   26 1   
    30   24   30 1   
    31   24   31 1   
    32   25   32 1   
    33   25   33 1   
    34   25   34 1   
    35   26   35 1   
    36   26   36 1   
    37   26   37 1   
    38   38   39 1   
    39   38   46 1   
    40   39   40 1   
    41   39   42 1   
    42   39   47 1   
    43   40   41 2   
    44   40   50 1   
    45   42   43 1   
    46   42   48 1   
    47   42   49 1   
    48   43   44 1   
    49   43   45 1   
    50   50   51 1   
    51   50   54 1   
    52   51   52 1   
    53   51   55 1   
    54   51   56 1   
    55   52   53 2   
    56   52   57 1   
    57   57   58 1   
    58   57   65 1   
    59   58   59 1   
    60   58   61 1   
    61   58   66 1   
    62   59   60 2   
    63   59   69 1   
    64   61   62 1   
    65   61   67 1   
    66   61   68 1   
    67   62   63 1   
    68   62   64 1   
    69   69   70 1   
    70   69   73 1   
    71   70   71 1   
    72   70   74 1   
    73   70   75 1   
    74   71   72 2   
    75   71   76 1   
    76   76   77 1   
    77   76   85 1   
    78   77   78 1   
    79   77   80 1   
    80   77   86 1   
    81   78   79 2   
    82   78   93 1   
    83   80   81 1   
    84   80   87 1   
    85   80   88 1   
    86   81   82 1   
    87   81   89 1   
    88   81   90 1   
    89   82   83 1   
    90   82   84 2   
    91   83   91 1   
    92   83   92 1   
    93   93   94 1   
    94   93  100 1   
    95   94   95 1   
    96   94   97 1   
    97   94  101 1   
    98   95   96 2   
    99   95  109 1   
   100   97   98 1   
   101   97   99 1   
   102   97  102 1   
   103   98  103 1   
   104   98  104 1   
   105   98  105 1   
   106   99  106 1   
   107   99  107 1   
   108   99  108 1   
   109  109  110 1   
   110  109  117 1   
   111  110  111 1   
   112  110  113 1   
   113  110  118 1   
   114  111  112 2   
   115  111  123 1   
   116  113  114 1   
   117  113  119 1   
   118  113  120 1   
   119  114  115 1   
   120  114  116 2   
   121  115  121 1   
   122  115  122 1   
   123  123  124 1   
   124  123  135 1   
   125  124  125 1   
   126  124  127 1   
   127  124  136 1   
   128  125  126 2   
   129  125  144 1   
   130  127  128 1   
   131  127  137 1   
   132  127  138 1   
   133  128  129 ar  
   134  128  130 ar  
   135  129  131 ar  
   136  129  139 1   
   137  130  132 ar  
   138  130  140 1   
   139  131  133 ar  
   140  131  141 1   
   141  132  133 ar  
   142  132  142 1   
   143  133  134 1   
   144  134  143 1   
   145  144  145 1   
   146  144  153 1   
   147  145  146 1   
   148  145  148 1   
   149  145  154 1   
   150  146  147 2   
   151  146  159 1   
   152  148  149 1   
   153  148  155 1   
   154  148  156 1   
   155  149  150 1   
   156  149  157 1   
   157  149  158 1   
   158  150  151 1   
   159  150  152 1   
   160  159  160 1   
   161  159  168 1   
   162  160  161 1   
   163  160  163 1   
   164  160  169 1   
   165  161  162 2   
   166  161  174 1   
   167  163  164 1   
   168  163  170 1   
   169  163  171 1   
   170  164  165 1   
   171  164  172 1   
   172  164  173 1   
   173  165  166 1   
   174  165  167 1   
   175  174  175 1   
   176  174  179 1   
   177  175  176 1   
   178  175  177 1   
   179  175  178 1   
   180  181  182 1   
   181  181  183 1   
   182  184  185 1   
   183  184  186 1   
   184  187  188 1   
   185  187  189 1   
@<TRIPOS>SUBSTRUCTURE
     1 MOL         1 TEMP              0 ****  ****    0 ROOT
