@<TRIPOS>MOLECULE
MOL
  192   187     1     0     0
SMALL
resp


@<TRIPOS>ATOM
      1 C1          9.8660    0.7510    0.5370 c3        1 MOL     -0.464873
      2 C2          8.6140    0.1310   -0.0630 c         1 MOL      0.814750
      3 O1          7.6040    0.0040    0.6220 o         1 MOL     -0.699335
      4 H1         10.3540    0.0250    1.1880 hc        1 MOL      0.123904
      5 H2         10.5490    1.0390   -0.2620 hc        1 MOL      0.123904
      6 H3          9.5930    1.6320    1.1180 hc        1 MOL      0.123904
      7 N1          8.6900   -0.4700   -1.2930 n         1 MOL     -0.778573
      8 C3          7.4470   -0.7070   -2.1180 c3        1 MOL      0.284747
      9 C4          6.7750   -2.0290   -1.7900 c         1 MOL      0.524332
     10 O2          6.3340   -2.7590   -2.6340 o         1 MOL     -0.529936
     11 C5          7.7080   -0.4370   -3.6240 c3        1 MOL     -0.396903
     12 C6          8.3170    0.8800   -3.8680 c         1 MOL      0.851550
     13 O3          7.6520    1.9140   -3.8940 o         1 MOL     -0.684406
     14 O4          9.5540    0.9760   -4.0900 o         1 MOL     -0.684406
     15 H4          9.5560   -0.4490   -1.7950 hn        1 MOL      0.363222
     16 H5          6.6360   -0.0290   -1.8610 h1        1 MOL      0.007265
     17 H6          6.7460   -0.5700   -4.1340 hc        1 MOL      0.092250
     18 H7          8.4990   -1.0850   -4.0100 hc        1 MOL      0.092250
     19 N2          6.7280   -2.3500   -0.5670 n         1 MOL     -0.378946
     20 C7          6.3000   -3.6620    0.0230 c3        1 MOL      0.072135
     21 C8          4.7980   -3.9700   -0.1480 c         1 MOL      0.509862
     22 O5          4.4640   -4.9680   -0.8430 o         1 MOL     -0.531440
     23 C9          6.7230   -3.7720    1.5220 c3        1 MOL     -0.283305
     24 C10         8.2270   -3.9440    1.6860 c3        1 MOL      0.077881
     25 C11         8.6500   -4.2280    3.2030 c3        1 MOL      0.056952
     26 C12        10.1610   -3.8550    3.4290 c3        1 MOL      0.072696
     27 N3         10.6220   -4.3350    4.7490 n4        1 MOL     -0.281301
     28 H8          7.0330   -1.6520    0.1040 hn        1 MOL      0.356745
     29 H9          6.8400   -4.4310   -0.5360 h1        1 MOL      0.075452
     30 H10         6.3160   -4.7440    1.7920 hc        1 MOL      0.102064
     31 H11         6.3850   -2.9060    2.0730 hc        1 MOL      0.102064
     32 H12         8.7690   -3.0730    1.3220 hc        1 MOL     -0.009856
     33 H13         8.6060   -4.7920    1.1170 hc        1 MOL     -0.009856
     34 H14         8.5380   -5.2600    3.5270 hc        1 MOL      0.000890
     35 H15         7.9410   -3.6510    3.7950 hc        1 MOL      0.000890
     36 H16        10.2590   -2.7740    3.4050 hx        1 MOL      0.050223
     37 H17        10.7990   -4.2610    2.6490 hx        1 MOL      0.050223
     38 H18        11.2200   -3.6550    5.1880 hn        1 MOL      0.244777
     39 H19         9.8520   -4.6310    5.3330 hn        1 MOL      0.244777
     40 H20        11.0730   -5.2040    4.5040 hn        1 MOL      0.244777
     41 N4          3.8380   -3.1590    0.2740 n         1 MOL     -0.504614
     42 C13         3.9000   -1.7760    0.8200 c3        1 MOL      0.011919
     43 C14         3.9740   -0.7400   -0.3380 c         1 MOL      0.567047
     44 O6          3.6280   -1.0500   -1.4590 o         1 MOL     -0.502563
     45 C15         2.7020   -1.4580    1.7830 c3        1 MOL     -0.049872
     46 C16         1.3890   -1.9820    1.2420 c         1 MOL      0.714146
     47 O7          0.9410   -1.3350    0.2420 o         1 MOL     -0.709641
     48 O8          0.8540   -3.0190    1.7070 o         1 MOL     -0.709641
     49 H21         2.9300   -3.4150   -0.0830 hn        1 MOL      0.368709
     50 H22         4.8090   -1.5640    1.3680 h1        1 MOL      0.006670
     51 H23         2.5970   -0.3730    1.7590 hc        1 MOL     -0.017389
     52 H24         2.7610   -1.8470    2.7890 hc        1 MOL     -0.017389
     53 N5          4.3740    0.5120   -0.0830 n         1 MOL     -0.197916
     54 C17         4.2840    1.6020   -0.9500 c3        1 MOL     -0.219598
     55 C18         2.9590    2.2800   -1.0260 c         1 MOL      0.688570
     56 O9          1.9820    1.8520   -0.4250 o         1 MOL     -0.648367
     57 H25         4.6360    0.7130    0.8740 hn        1 MOL      0.231498
     58 H26         4.5060    1.2430   -1.9550 h1        1 MOL      0.127473
     59 H27         5.0180    2.3340   -0.6320 h1        1 MOL      0.127473
     60 N6          2.9030    3.4500   -1.6750 n         1 MOL     -0.574726
     61 C19         1.8180    4.3160   -2.0590 c3        1 MOL      0.352120
     62 C20         2.3250    5.7550   -2.2220 c         1 MOL      0.379809
     63 O10         3.5580    5.9970   -2.2210 o         1 MOL     -0.515682
     64 C21         1.3570    3.9350   -3.5230 c3        1 MOL     -0.333485
     65 C22         0.7990    2.4320   -3.4810 c         1 MOL      0.695022
     66 O11         1.4340    1.5960   -4.0900 o         1 MOL     -0.651722
     67 O12        -0.2320    2.2010   -2.7860 o         1 MOL     -0.651722
     68 H28         3.7700    3.7790   -2.0750 hn        1 MOL      0.302982
     69 H29         0.9960    4.2910   -1.3430 h1        1 MOL     -0.012074
     70 H30         2.1850    4.0100   -4.2290 hc        1 MOL      0.092932
     71 H31         0.5850    4.6290   -3.8300 hc        1 MOL      0.092932
     72 N7          1.5260    6.8540   -2.2980 n         1 MOL     -0.406300
     73 C23         0.0700    6.7200   -2.1340 c3        1 MOL     -0.020772
     74 C24        -0.5740    6.4260   -0.8180 c         1 MOL      0.535945
     75 O13        -0.1950    7.0370    0.1940 o         1 MOL     -0.541409
     76 H32         2.0060    7.7420   -2.3750 hn        1 MOL      0.329270
     77 H33        -0.2810    6.1360   -2.9840 h1        1 MOL      0.053543
     78 H34        -0.3020    7.7230   -2.3600 h1        1 MOL      0.053543
     79 N8         -1.5180    5.5020   -0.7170 n         1 MOL     -0.502281
     80 C25        -2.0370    5.1630    0.5990 c3        1 MOL      0.058782
     81 C26        -1.4940    3.7940    1.0620 c         1 MOL      0.811348
     82 O14        -1.1660    2.9090    0.3110 o         1 MOL     -0.712940
     83 C27        -3.5710    5.2340    0.4490 c3        1 MOL      0.413763
     84 C28        -4.2860    5.0210    1.7640 c3        1 MOL     -0.294613
     85 O15        -4.0080    4.2960   -0.4910 oh        1 MOL     -0.639705
     86 H35        -1.7110    4.9470   -1.5380 hn        1 MOL      0.269319
     87 H36        -1.7930    5.8930    1.3630 h1        1 MOL      0.057928
     88 H37        -3.7850    6.2070    0.0210 h1        1 MOL      0.001144
     89 H38        -4.6000    4.7120   -1.1300 ho        1 MOL      0.412407
     90 H39        -4.2270    4.0720    2.2810 hc        1 MOL      0.062594
     91 H40        -3.8640    5.7720    2.4390 hc        1 MOL      0.062594
     92 H41        -5.3230    5.3550    1.6840 hc        1 MOL      0.062594
     93 N9         -1.3220    3.7450    2.4090 n         1 MOL     -0.793182
     94 C29        -0.6630    2.6640    3.2000 c3        1 MOL      0.092667
     95 C30        -1.1420    1.2760    2.8540 c         1 MOL      0.816832
     96 O16        -0.7810    0.6370    1.8560 o         1 MOL     -0.689393
     97 C31         0.9100    2.7820    3.1440 c3        1 MOL      0.127550
     98 C32         1.5330    4.1780    3.1960 c3        1 MOL     -0.169559
     99 C33         1.4320    2.0080    4.3650 c3        1 MOL     -0.485498
    100 C34         1.8280    4.7780    1.8240 c3        1 MOL      0.062630
    101 H42        -1.6900    4.4820    2.9880 hn        1 MOL      0.369263
    102 H43        -0.8730    2.7690    4.2660 h1        1 MOL      0.024586
    103 H44         1.2220    2.1880    2.2810 hc        1 MOL      0.096043
    104 H45         2.4830    4.3140    3.7270 hc        1 MOL      0.060965
    105 H46         0.8890    4.8470    3.7570 hc        1 MOL      0.060965
    106 H47         0.8870    1.0790    4.5160 hc        1 MOL      0.114907
    107 H48         2.4990    1.8280    4.2630 hc        1 MOL      0.114907
    108 H49         1.3580    2.6410    5.2530 hc        1 MOL      0.114907
    109 H50         2.6410    4.2520    1.3290 hc        1 MOL      0.000262
    110 H51         0.9740    4.7090    1.1520 hc        1 MOL      0.000262
    111 H52         2.0980    5.8170    1.9900 hc        1 MOL      0.000262
    112 N10        -1.9140    0.7230    3.8020 n         1 MOL     -0.467350
    113 C35        -2.4680   -0.6140    3.8160 c3        1 MOL     -0.084822
    114 C36        -3.8350   -0.7320    3.0730 c         1 MOL      0.599708
    115 O17        -4.3670   -1.8200    2.8610 o         1 MOL     -0.564609
    116 C37        -2.5170   -1.2470    5.2660 c3        1 MOL      0.458901
    117 C38        -3.5790   -0.4590    6.0310 c3        1 MOL     -0.286630
    118 O18        -1.2420   -1.1400    5.8950 oh        1 MOL     -0.644565
    119 H53        -2.1440    1.3460    4.5590 hn        1 MOL      0.246754
    120 H54        -1.8000   -1.2600    3.2450 h1        1 MOL      0.094679
    121 H55        -2.7750   -2.3020    5.1570 h1        1 MOL     -0.011210
    122 H56        -0.6050   -1.7030    5.4540 ho        1 MOL      0.419872
    123 H57        -4.5660   -0.4610    5.5660 hc        1 MOL      0.075747
    124 H58        -3.7270   -0.8580    7.0370 hc        1 MOL      0.075747
    125 H59        -3.2880    0.5850    6.0470 hc        1 MOL      0.075747
    126 N11        -4.5070    0.4170    2.7390 n         1 MOL     -0.423047
    127 C39        -5.8950    0.4470    2.1350 c3        1 MOL     -0.083074
    128 C40        -5.9050   -0.3750    0.8880 c         1 MOL      0.588104
    129 O19        -5.3270   -0.0050   -0.1320 o         1 MOL     -0.529718
    130 C41        -6.1970    1.8960    1.8470 c3        1 MOL      0.370014
    131 C42        -7.4870    2.1690    1.1770 c3        1 MOL     -0.406341
    132 O20        -6.4270    2.6030    2.9850 oh        1 MOL     -0.556314
    133 H60        -4.0670    1.2690    3.0690 hn        1 MOL      0.185577
    134 H61        -6.6620    0.0430    2.7800 h1        1 MOL      0.066833
    135 H62        -5.3410    2.2140    1.2400 h1        1 MOL     -0.012766
    136 H63        -5.6250    2.5260    3.5060 ho        1 MOL      0.360488
    137 H64        -7.5170    3.2460    1.0080 hc        1 MOL      0.114520
    138 H65        -7.5400    1.5640    0.2720 hc        1 MOL      0.114520
    139 H66        -8.2670    1.7390    1.8110 hc        1 MOL      0.114520
    140 N12        -6.6770   -1.4270    0.9620 n         1 MOL     -0.376901
    141 C43        -7.1380   -2.2060   -0.2040 c3        1 MOL      0.006934
    142 C44        -5.9870   -2.7050   -1.0260 c         1 MOL      0.549529
    143 O21        -6.0160   -2.4820   -2.2380 o         1 MOL     -0.527308
    144 C45        -8.2340   -1.3750   -0.8510 c3        1 MOL     -0.160706
    145 C46        -9.2610   -2.2790   -1.6630 c3        1 MOL     -0.015091
    146 C47       -10.6020   -1.4240   -2.0070 c3        1 MOL      0.267568
    147 C48       -11.5800   -2.2770   -2.9080 c3        1 MOL      0.077977
    148 N13       -12.8760   -1.5410   -3.0010 n4        1 MOL     -0.204011
    149 H67        -7.0170   -1.6530    1.8840 hn        1 MOL      0.272078
    150 H68        -7.5020   -3.0930    0.3030 h1        1 MOL      0.072520
    151 H69        -7.7940   -0.5430   -1.4050 hc        1 MOL      0.066435
    152 H70        -8.7810   -0.8590   -0.0580 hc        1 MOL      0.066435
    153 H71        -9.5340   -3.1100   -1.0220 hc        1 MOL      0.022755
    154 H72        -8.8790   -2.6170   -2.6320 hc        1 MOL      0.022755
    155 H73       -10.4450   -0.4510   -2.4660 hc        1 MOL     -0.082338
    156 H74       -11.1570   -1.3520   -1.0720 hc        1 MOL     -0.082338
    157 H75       -11.6720   -3.2360   -2.4160 hx        1 MOL      0.045013
    158 H76       -11.2180   -2.4080   -3.9300 hx        1 MOL      0.045013
    159 H77       -12.7160   -0.6790   -3.4930 hn        1 MOL      0.199828
    160 H78       -13.6000   -2.0630   -3.4780 hn        1 MOL      0.199828
    161 H79       -13.2100   -1.3610   -2.0660 hn        1 MOL      0.199828
    162 N14        -4.9360   -3.2000   -0.4340 n         1 MOL     -0.630800
    163 C49        -3.6530   -3.4120   -1.0850 c3        1 MOL      0.547477
    164 C50        -2.3960   -2.9010   -0.2300 c         1 MOL      0.351594
    165 O22        -1.9810   -1.8020   -0.5250 o         1 MOL     -0.584834
    166 C51        -3.4830   -4.8500   -1.6650 c3        1 MOL     -0.102388
    167 C52        -4.5770   -5.2210   -2.6550 c3        1 MOL     -0.340087
    168 C53        -4.3980   -6.7100   -3.1420 c         1 MOL      0.726040
    169 O23        -3.4390   -7.0650   -3.8250 o         1 MOL     -0.624541
    170 O24        -5.2510   -7.5630   -2.8900 o         1 MOL     -0.624541
    171 H80        -4.9600   -3.2140    0.5840 hn        1 MOL      0.330467
    172 H81        -3.5630   -2.8080   -1.9870 h1        1 MOL     -0.013056
    173 H82        -3.3790   -5.5910   -0.8790 hc        1 MOL      0.049498
    174 H83        -2.5320   -4.8140   -2.2120 hc        1 MOL      0.049498
    175 H84        -4.5600   -4.4500   -3.4160 hc        1 MOL      0.081908
    176 H85        -5.5500   -5.1530   -2.1830 hc        1 MOL      0.081908
    177 N15        -1.7470   -3.6410    0.7170 n         1 MOL     -0.439909
    178 C54        -2.0130   -4.9160    1.3910 c3        1 MOL     -0.037297
    179 H86        -1.7490   -4.8310    2.4450 h1        1 MOL      0.049165
    180 H87        -3.0710   -5.1630    1.3000 h1        1 MOL      0.049165
    181 H88        -1.4150   -5.7030    0.9300 h1        1 MOL      0.049165
    182 H89        -0.8440   -3.2700    0.9600 hn        1 MOL      0.395190
    183 Ca1        -0.6800    0.5140   -0.8410 Ca        1 MOL      1.837943
    184 O25        -3.1300    1.4370   -1.0170 oh        1 MOL     -0.909311
    185 H90        -3.9080    0.8920   -1.0260 ho        1 MOL      0.434818
    186 H91        -3.4450    2.3170   -0.8030 ho        1 MOL      0.434818
    187 O26         1.1130   -0.4690   -2.6080 oh        1 MOL     -0.909311
    188 H92         1.2220    0.2040   -3.2700 ho        1 MOL      0.434818
    189 H93         2.0130   -0.6930   -2.3470 ho        1 MOL      0.434818
    190 O27        -1.7940   -0.6460   -3.2810 oh        1 MOL     -0.909311
    191 H94        -2.2620   -0.2700   -4.0200 ho        1 MOL      0.434818
    192 H95        -1.6670   -1.5620   -3.5120 ho        1 MOL      0.434818
@<TRIPOS>BOND
     1    1    2 1   
     2    1    4 1   
     3    1    5 1   
     4    1    6 1   
     5    2    3 2   
     6    2    7 1   
     7    7    8 1   
     8    7   15 1   
     9    8    9 1   
    10    8   11 1   
    11    8   16 1   
    12    9   10 2   
    13    9   19 1   
    14   11   12 1   
    15   11   17 1   
    16   11   18 1   
    17   12   13 1   
    18   12   14 1   
    19   19   20 1   
    20   19   28 1   
    21   20   21 1   
    22   20   23 1   
    23   20   29 1   
    24   21   22 2   
    25   21   41 1   
    26   23   24 1   
    27   23   30 1   
    28   23   31 1   
    29   24   25 1   
    30   24   32 1   
    31   24   33 1   
    32   25   26 1   
    33   25   34 1   
    34   25   35 1   
    35   26   27 1   
    36   26   36 1   
    37   26   37 1   
    38   27   38 1   
    39   27   39 1   
    40   27   40 1   
    41   41   42 1   
    42   41   49 1   
    43   42   43 1   
    44   42   45 1   
    45   42   50 1   
    46   43   44 2   
    47   43   53 1   
    48   45   46 1   
    49   45   51 1   
    50   45   52 1   
    51   46   47 1   
    52   46   48 1   
    53   53   54 1   
    54   53   57 1   
    55   54   55 1   
    56   54   58 1   
    57   54   59 1   
    58   55   56 2   
    59   55   60 1   
    60   60   61 1   
    61   60   68 1   
    62   61   62 1   
    63   61   64 1   
    64   61   69 1   
    65   62   63 2   
    66   62   72 1   
    67   64   65 1   
    68   64   70 1   
    69   64   71 1   
    70   65   66 1   
    71   65   67 1   
    72   72   73 1   
    73   72   76 1   
    74   73   74 1   
    75   73   77 1   
    76   73   78 1   
    77   74   75 2   
    78   74   79 1   
    79   79   80 1   
    80   79   86 1   
    81   80   81 1   
    82   80   83 1   
    83   80   87 1   
    84   81   82 2   
    85   81   93 1   
    86   83   84 1   
    87   83   85 1   
    88   83   88 1   
    89   84   90 1   
    90   84   91 1   
    91   84   92 1   
    92   85   89 1   
    93   93   94 1   
    94   93  101 1   
    95   94   95 1   
    96   94   97 1   
    97   94  102 1   
    98   95   96 2   
    99   95  112 1   
   100   97   98 1   
   101   97   99 1   
   102   97  103 1   
   103   98  100 1   
   104   98  104 1   
   105   98  105 1   
   106   99  106 1   
   107   99  107 1   
   108   99  108 1   
   109  100  109 1   
   110  100  110 1   
   111  100  111 1   
   112  112  113 1   
   113  112  119 1   
   114  113  114 1   
   115  113  116 1   
   116  113  120 1   
   117  114  115 2   
   118  114  126 1   
   119  116  117 1   
   120  116  118 1   
   121  116  121 1   
   122  117  123 1   
   123  117  124 1   
   124  117  125 1   
   125  118  122 1   
   126  126  127 1   
   127  126  133 1   
   128  127  128 1   
   129  127  130 1   
   130  127  134 1   
   131  128  129 2   
   132  128  140 1   
   133  130  131 1   
   134  130  132 1   
   135  130  135 1   
   136  131  137 1   
   137  131  138 1   
   138  131  139 1   
   139  132  136 1   
   140  140  141 1   
   141  140  149 1   
   142  141  142 1   
   143  141  144 1   
   144  141  150 1   
   145  142  143 2   
   146  142  162 1   
   147  144  145 1   
   148  144  151 1   
   149  144  152 1   
   150  145  146 1   
   151  145  153 1   
   152  145  154 1   
   153  146  147 1   
   154  146  155 1   
   155  146  156 1   
   156  147  148 1   
   157  147  157 1   
   158  147  158 1   
   159  148  159 1   
   160  148  160 1   
   161  148  161 1   
   162  162  163 1   
   163  162  171 1   
   164  163  164 1   
   165  163  166 1   
   166  163  172 1   
   167  164  165 2   
   168  164  177 1   
   169  166  167 1   
   170  166  173 1   
   171  166  174 1   
   172  167  168 1   
   173  167  175 1   
   174  167  176 1   
   175  168  169 1   
   176  168  170 1   
   177  177  178 1   
   178  177  182 1   
   179  178  179 1   
   180  178  180 1   
   181  178  181 1   
   182  184  185 1   
   183  184  186 1   
   184  187  188 1   
   185  187  189 1   
   186  190  191 1   
   187  190  192 1   
@<TRIPOS>SUBSTRUCTURE
     1 MOL         1 TEMP              0 ****  ****    0 ROOT
