@<TRIPOS>MOLECULE
MOL
  195   189     1     0     0
SMALL
resp


@<TRIPOS>ATOM
      1 C1          2.0490    2.6260    3.9640 c3        1 MOL     -0.406919
      2 C2          1.4890    2.8000    2.5450 c         1 MOL      0.704022
      3 O1          0.6900    1.9970    2.0700 o         1 MOL     -0.552294
      4 H1          1.6160    1.7340    4.4180 hc        1 MOL      0.098063
      5 H2          3.1330    2.5190    3.9180 hc        1 MOL      0.098063
      6 H3          1.7950    3.4990    4.5650 hc        1 MOL      0.098063
      7 N1          1.9560    3.8220    1.7950 n         1 MOL     -0.373434
      8 C3          1.5920    4.2990    0.4170 c3        1 MOL     -0.271259
      9 C4          0.0860    4.3710    0.2390 c         1 MOL      0.876823
     10 O2         -0.4330    3.9860   -0.7770 o         1 MOL     -0.592130
     11 C5          2.3340    3.6520   -0.6610 c3        1 MOL     -0.129132
     12 C6          3.8690    3.8610   -0.5770 c         1 MOL      0.685876
     13 O3          4.4080    4.8690   -1.1080 o         1 MOL     -0.751093
     14 O4          4.6320    2.9970   -0.0550 o         1 MOL     -0.751093
     15 H4          2.6710    4.3390    2.2910 hn        1 MOL      0.195258
     16 H5          1.9440    5.3290    0.3350 h1        1 MOL      0.117082
     17 H6          2.0210    4.1080   -1.5990 hc        1 MOL      0.097447
     18 H7          2.1370    2.5860   -0.7260 hc        1 MOL      0.097447
     19 N2         -0.7080    4.8630    1.2410 n         1 MOL     -0.470844
     20 C7         -2.1820    5.1240    1.1280 c3        1 MOL     -0.531293
     21 C8         -2.4490    6.4390    0.4590 c         1 MOL      0.716528
     22 O5         -1.7420    7.3880    0.6890 o         1 MOL     -0.605195
     23 C9         -2.8380    5.0990    2.5180 c3        1 MOL      0.437744
     24 C10        -2.3280    6.1230    3.5080 c3        1 MOL      0.018292
     25 C11        -2.5320    3.7140    3.0780 c3        1 MOL     -0.242187
     26 C12        -3.1870    6.2830    4.7840 c3        1 MOL     -0.180869
     27 H8         -0.2360    5.1450    2.0820 hn        1 MOL      0.205722
     28 H9         -2.7010    4.3750    0.5440 h1        1 MOL      0.242592
     29 H10        -3.9190    5.1190    2.3370 hc        1 MOL     -0.049768
     30 H11        -2.2720    7.1320    3.0930 hc        1 MOL      0.024574
     31 H12        -1.3760    5.7720    3.9030 hc        1 MOL      0.024574
     32 H13        -2.9710    3.4040    4.0290 hc        1 MOL      0.052777
     33 H14        -2.9970    2.9700    2.4380 hc        1 MOL      0.052777
     34 H15        -1.4470    3.7060    3.2540 hc        1 MOL      0.052777
     35 H16        -2.5830    6.8710    5.4670 hc        1 MOL      0.023289
     36 H17        -4.1470    6.7620    4.5770 hc        1 MOL      0.023289
     37 H18        -3.4060    5.2890    5.1860 hc        1 MOL      0.023289
     38 N3         -3.4920    6.6910   -0.3290 n         1 MOL     -0.428537
     39 C13        -4.7720    6.0090   -0.3290 c3        1 MOL     -0.118152
     40 C14        -4.8670    4.7040   -1.1200 c         1 MOL      0.530724
     41 O6         -5.4870    3.7420   -0.6880 o         1 MOL     -0.558861
     42 C15        -5.8620    6.9260   -0.6630 c3        1 MOL     -0.016150
     43 C16        -5.6960    7.5740   -2.0330 c         1 MOL      0.611798
     44 O7         -6.5820    7.2510   -2.9050 o         1 MOL     -0.689692
     45 O8         -4.8370    8.4860   -2.2410 o         1 MOL     -0.689692
     46 H19        -3.4950    7.6180   -0.7170 hn        1 MOL      0.243367
     47 H20        -4.8650    5.8170    0.7390 h1        1 MOL      0.073447
     48 H21        -6.0050    7.7410    0.0530 hc        1 MOL      0.014164
     49 H22        -6.8110    6.4120   -0.5170 hc        1 MOL      0.014164
     50 N4         -4.1980    4.6030   -2.2770 n         1 MOL     -0.311609
     51 C17        -3.8590    3.3640   -2.9500 c3        1 MOL     -0.167619
     52 C18        -5.1370    2.4730   -3.2120 c         1 MOL      0.608268
     53 O9         -6.1670    3.0340   -3.5570 o         1 MOL     -0.547340
     54 H23        -3.8440    5.4620   -2.6820 hn        1 MOL      0.283067
     55 H24        -3.0860    2.8470   -2.3690 h1        1 MOL      0.102401
     56 H25        -3.3790    3.5410   -3.9140 h1        1 MOL      0.102401
     57 N5         -5.0180    1.2070   -3.0270 n         1 MOL     -0.531820
     58 C19        -6.0670    0.2170   -3.3440 c3        1 MOL      0.143572
     59 C20        -7.0200   -0.1220   -2.2370 c         1 MOL      0.356377
     60 O10        -7.9530   -0.9590   -2.4180 o         1 MOL     -0.559208
     61 C21        -5.3560   -0.9820   -4.0340 c3        1 MOL     -0.253263
     62 C22        -4.0930   -1.3330   -3.2150 c         1 MOL      0.744247
     63 O11        -2.9520   -1.2710   -3.7600 o         1 MOL     -0.701027
     64 O12        -4.2340   -1.6730   -2.0260 o         1 MOL     -0.701027
     65 H26        -4.1080    0.9190   -2.6660 hn        1 MOL      0.294992
     66 H27        -6.7020    0.6820   -4.1000 h1        1 MOL      0.086796
     67 H28        -5.1420   -0.6500   -5.0450 hc        1 MOL      0.045606
     68 H29        -6.0930   -1.7680   -4.1940 hc        1 MOL      0.045606
     69 N6         -6.7730    0.2910   -1.0170 n         1 MOL     -0.146844
     70 C23        -7.3840   -0.0740    0.2810 c3        1 MOL     -0.204502
     71 C24        -7.3530   -1.5480    0.6790 c         1 MOL      0.574571
     72 O13        -7.8530   -1.8590    1.8160 o         1 MOL     -0.623952
     73 H30        -5.9120    0.8210   -0.9940 hn        1 MOL      0.225039
     74 H31        -8.4350    0.2220    0.2310 h1        1 MOL      0.112511
     75 H32        -6.9900    0.5780    1.0610 h1        1 MOL      0.112511
     76 N7         -6.6470   -2.3440   -0.1270 n         1 MOL     -0.250396
     77 C25        -6.2650   -3.7680   -0.1010 c3        1 MOL     -0.019483
     78 C26        -5.5380   -4.2870    1.1410 c         1 MOL      0.394053
     79 O14        -5.4660   -5.4770    1.3720 o         1 MOL     -0.479945
     80 C27        -7.3880   -4.6940   -0.4560 c3        1 MOL      0.075424
     81 C28        -7.8910   -4.3770   -1.9110 c3        1 MOL     -0.064638
     82 C29        -8.8160   -5.3980   -2.4950 c         1 MOL      0.593009
     83 N8         -9.5790   -5.0250   -3.4960 n         1 MOL     -0.754922
     84 O15        -8.8470   -6.5520   -2.0790 o         1 MOL     -0.578016
     85 H33        -6.1650   -1.8190   -0.8390 hn        1 MOL      0.161977
     86 H34        -5.6110   -3.7340   -0.9710 h1        1 MOL      0.100972
     87 H35        -8.2600   -4.5810    0.1870 hc        1 MOL      0.007079
     88 H36        -7.0440   -5.7240   -0.3370 hc        1 MOL      0.007079
     89 H37        -7.0110   -4.4020   -2.5520 hc        1 MOL      0.044679
     90 H38        -8.3280   -3.3740   -1.9970 hc        1 MOL      0.044679
     91 H39        -9.5840   -4.1630   -4.0270 hn        1 MOL      0.332181
     92 H40       -10.1170   -5.7390   -3.9600 hn        1 MOL      0.332181
     93 N9         -5.0920   -3.3880    2.0220 n         1 MOL     -0.171449
     94 C30        -4.5000   -3.8110    3.3070 c3        1 MOL     -0.259273
     95 C31        -2.9990   -3.5450    3.3880 c         1 MOL      0.625828
     96 O16        -2.4180   -4.0510    4.3380 o         1 MOL     -0.572129
     97 C32        -5.2690   -3.2820    4.5520 c3        1 MOL      0.387970
     98 C33        -5.2290   -1.7360    4.5990 c3        1 MOL     -0.435449
     99 C34        -6.8000   -3.6450    4.6130 c3        1 MOL     -0.435449
    100 H41        -5.1770   -2.4010    1.8520 hn        1 MOL      0.192847
    101 H42        -4.5040   -4.9040    3.3400 h1        1 MOL      0.121751
    102 H43        -4.7960   -3.6370    5.4720 hc        1 MOL     -0.037380
    103 H44        -5.6230   -1.3390    5.5360 hc        1 MOL      0.103202
    104 H45        -4.1770   -1.4920    4.7170 hc        1 MOL      0.103202
    105 H46        -5.7750   -1.2570    3.7940 hc        1 MOL      0.103202
    106 H47        -7.3000   -3.4060    5.5520 hc        1 MOL      0.103202
    107 H48        -7.2540   -3.1690    3.7420 hc        1 MOL      0.103202
    108 H49        -6.8920   -4.7060    4.3470 hc        1 MOL      0.103202
    109 N10        -2.4030   -2.8880    2.4050 n         1 MOL     -0.449600
    110 C35        -0.9100   -2.5790    2.3940 c3        1 MOL      0.246633
    111 C36        -0.2320   -3.0600    1.0810 c         1 MOL      0.555044
    112 O17        -0.9020   -3.6560    0.3340 o         1 MOL     -0.514644
    113 C37        -0.7260   -1.0830    2.6330 c3        1 MOL     -0.180715
    114 C38        -1.4650   -0.4950    3.7960 c         1 MOL      0.571731
    115 N11        -2.4880    0.3070    3.5220 n         1 MOL     -0.791636
    116 O18        -1.2180   -0.7140    4.9790 o         1 MOL     -0.536252
    117 H50        -2.9200   -2.5460    1.6040 hn        1 MOL      0.249865
    118 H51        -0.5220   -3.0930    3.2750 h1        1 MOL      0.028192
    119 H52        -1.0270   -0.5910    1.7090 hc        1 MOL      0.072780
    120 H53         0.3410   -0.8540    2.6390 hc        1 MOL      0.072780
    121 H54        -2.6190    0.6750    2.5930 hn        1 MOL      0.357981
    122 H55        -2.9040    0.8360    4.2700 hn        1 MOL      0.357981
    123 N12         1.0820   -2.9090    0.9670 n         1 MOL     -0.627333
    124 C39         1.9050   -3.5330   -0.0710 c3        1 MOL      0.409053
    125 C40         3.3370   -3.8110    0.4400 c         1 MOL      0.468459
    126 O19         3.7420   -3.3580    1.5220 o         1 MOL     -0.530848
    127 C41         1.9070   -2.6530   -1.4030 c3        1 MOL     -0.310746
    128 C42         2.6670   -3.3400   -2.5370 ca        1 MOL      0.196305
    129 C43         3.8260   -2.6860   -3.0470 ca        1 MOL     -0.283533
    130 C44         2.2020   -4.5320   -3.0580 ca        1 MOL     -0.283533
    131 C45         4.6170   -3.3160   -4.0700 ca        1 MOL     -0.110574
    132 C46         2.8070   -5.0160   -4.2520 ca        1 MOL     -0.110574
    133 C47         4.0100   -4.4510   -4.7470 ca        1 MOL      0.155569
    134 O20         4.4930   -5.0530   -5.8600 oh        1 MOL     -0.444412
    135 H56         1.4520   -2.4900    1.8060 hn        1 MOL      0.260264
    136 H57         1.4550   -4.5010   -0.3000 h1        1 MOL      0.032274
    137 H58         2.3580   -1.6860   -1.1740 hc        1 MOL      0.116763
    138 H59         0.9190   -2.3800   -1.7460 hc        1 MOL      0.116763
    139 H60         4.1440   -1.7110   -2.7020 ha        1 MOL      0.166781
    140 H61         1.3130   -4.9720   -2.6510 ha        1 MOL      0.166781
    141 H62         5.4200   -2.7510   -4.5150 ha        1 MOL      0.123112
    142 H63         2.4280   -5.8820   -4.7780 ha        1 MOL      0.123112
    143 H64         5.3130   -4.6050   -6.0670 ho        1 MOL      0.352711
    144 N13         4.1930   -4.5040   -0.3520 n         1 MOL     -0.660968
    145 C48         5.5910   -4.8440    0.0130 c3        1 MOL      0.325025
    146 C49         6.6940   -4.3110   -1.0020 c         1 MOL      0.419488
    147 O21         7.3670   -5.1170   -1.6210 o         1 MOL     -0.531699
    148 C50         5.7670   -6.3550    0.2730 c3        1 MOL      0.193220
    149 C51         4.7450   -6.8960    1.1860 c3        1 MOL     -0.214384
    150 C52         5.2320   -8.3270    1.4150 c         1 MOL      0.617964
    151 O22         6.1660   -8.4960    2.2550 o         1 MOL     -0.664863
    152 O23         4.7820   -9.2400    0.6260 o         1 MOL     -0.664863
    153 H65         3.8210   -4.7340   -1.2590 hn        1 MOL      0.339112
    154 H66         5.8220   -4.3110    0.9330 h1        1 MOL     -0.007697
    155 H67         6.7640   -6.5720    0.6380 hc        1 MOL     -0.021888
    156 H68         5.7860   -6.7390   -0.7450 hc        1 MOL     -0.021888
    157 H69         3.7450   -6.8480    0.7660 hc        1 MOL      0.023701
    158 H70         4.8050   -6.4330    2.1680 hc        1 MOL      0.023701
    159 N14         6.9120   -2.9840   -1.0610 n         1 MOL     -0.390378
    160 C53         6.2350   -1.9120   -0.2330 c3        1 MOL     -0.461425
    161 C54         6.7710   -1.9040    1.2320 c         1 MOL      0.862803
    162 O24         7.6720   -2.6630    1.5840 o         1 MOL     -0.563846
    163 C55         6.5520   -0.5830   -0.9150 c3        1 MOL      0.363929
    164 C56         7.9910   -0.0310   -0.7850 c3        1 MOL     -0.466608
    165 C57         8.3040    1.1640   -1.6050 c         1 MOL      0.836251
    166 O25         9.2920    1.1860   -2.4200 o         1 MOL     -0.731138
    167 O26         7.5350    2.1140   -1.4920 o         1 MOL     -0.731138
    168 H71         7.4940   -2.6960   -1.8310 hn        1 MOL      0.304820
    169 H72         5.1620   -1.9120   -0.0760 h1        1 MOL      0.154330
    170 H73         5.7530    0.0770   -0.5490 hc        1 MOL     -0.039165
    171 H74         6.3750   -0.6650   -1.9790 hc        1 MOL     -0.039165
    172 H75         8.6740   -0.8510   -1.0320 hc        1 MOL      0.063204
    173 H76         8.2260    0.1630    0.2640 hc        1 MOL      0.063204
    174 N15         6.1720   -1.0090    2.0660 n         1 MOL     -0.390173
    175 C58         6.4570   -0.8080    3.5440 c3        1 MOL     -0.486541
    176 H77         6.4310   -1.7720    4.0530 h1        1 MOL      0.171456
    177 H78         7.4430   -0.3590    3.6670 h1        1 MOL      0.171456
    178 H79         5.7020   -0.1500    3.9740 h1        1 MOL      0.171456
    179 H80         5.3400   -0.5510    1.7260 hn        1 MOL      0.299682
    180 Ca1         7.0380    4.5050   -0.1540 Ca        1 MOL      1.730984
    181 O27         9.8410    4.2150   -0.9220 oh        1 MOL     -0.838465
    182 O28         7.4940    4.7380   -2.8450 oh        1 MOL     -0.838465
    183 H81         9.9470    3.4090   -1.4130 ho        1 MOL      0.400024
    184 H82         7.5750    5.4800   -3.4560 ho        1 MOL      0.400024
    185 H83        10.6380    4.7190   -1.1110 ho        1 MOL      0.400024
    186 H84         7.6540    3.9700   -3.3900 ho        1 MOL      0.400024
    187 O29         7.9030    7.1430   -1.0470 oh        1 MOL     -0.838465
    188 H85         7.2600    7.8420   -1.0580 ho        1 MOL      0.400024
    189 H86         8.6980    7.5190   -1.4140 ho        1 MOL      0.400024
    190 O30         7.1310    2.8620    2.1030 oh        1 MOL     -0.838465
    191 H87         7.7050    2.4410    2.7510 ho        1 MOL      0.400024
    192 H88         6.2490    2.7310    2.4460 ho        1 MOL      0.400024
    193 O31         8.3460    6.1300    1.5130 oh        1 MOL     -0.838465
    194 H89         8.1960    6.5060    2.3830 ho        1 MOL      0.400024
    195 H90         9.2500    5.8370    1.5380 ho        1 MOL      0.400024
@<TRIPOS>BOND
     1    1    2 1   
     2    1    4 1   
     3    1    5 1   
     4    1    6 1   
     5    2    3 2   
     6    2    7 1   
     7    7    8 1   
     8    7   15 1   
     9    8    9 1   
    10    8   11 1   
    11    8   16 1   
    12    9   10 2   
    13    9   19 1   
    14   11   12 1   
    15   11   17 1   
    16   11   18 1   
    17   12   13 1   
    18   12   14 1   
    19   19   20 1   
    20   19   27 1   
    21   20   21 1   
    22   20   23 1   
    23   20   28 1   
    24   21   22 2   
    25   21   38 1   
    26   23   24 1   
    27   23   25 1   
    28   23   29 1   
    29   24   26 1   
    30   24   30 1   
    31   24   31 1   
    32   25   32 1   
    33   25   33 1   
    34   25   34 1   
    35   26   35 1   
    36   26   36 1   
    37   26   37 1   
    38   38   39 1   
    39   38   46 1   
    40   39   40 1   
    41   39   42 1   
    42   39   47 1   
    43   40   41 2   
    44   40   50 1   
    45   42   43 1   
    46   42   48 1   
    47   42   49 1   
    48   43   44 1   
    49   43   45 1   
    50   50   51 1   
    51   50   54 1   
    52   51   52 1   
    53   51   55 1   
    54   51   56 1   
    55   52   53 2   
    56   52   57 1   
    57   57   58 1   
    58   57   65 1   
    59   58   59 1   
    60   58   61 1   
    61   58   66 1   
    62   59   60 2   
    63   59   69 1   
    64   61   62 1   
    65   61   67 1   
    66   61   68 1   
    67   62   63 1   
    68   62   64 1   
    69   69   70 1   
    70   69   73 1   
    71   70   71 1   
    72   70   74 1   
    73   70   75 1   
    74   71   72 2   
    75   71   76 1   
    76   76   77 1   
    77   76   85 1   
    78   77   78 1   
    79   77   80 1   
    80   77   86 1   
    81   78   79 2   
    82   78   93 1   
    83   80   81 1   
    84   80   87 1   
    85   80   88 1   
    86   81   82 1   
    87   81   89 1   
    88   81   90 1   
    89   82   83 1   
    90   82   84 2   
    91   83   91 1   
    92   83   92 1   
    93   93   94 1   
    94   93  100 1   
    95   94   95 1   
    96   94   97 1   
    97   94  101 1   
    98   95   96 2   
    99   95  109 1   
   100   97   98 1   
   101   97   99 1   
   102   97  102 1   
   103   98  103 1   
   104   98  104 1   
   105   98  105 1   
   106   99  106 1   
   107   99  107 1   
   108   99  108 1   
   109  109  110 1   
   110  109  117 1   
   111  110  111 1   
   112  110  113 1   
   113  110  118 1   
   114  111  112 2   
   115  111  123 1   
   116  113  114 1   
   117  113  119 1   
   118  113  120 1   
   119  114  115 1   
   120  114  116 2   
   121  115  121 1   
   122  115  122 1   
   123  123  124 1   
   124  123  135 1   
   125  124  125 1   
   126  124  127 1   
   127  124  136 1   
   128  125  126 2   
   129  125  144 1   
   130  127  128 1   
   131  127  137 1   
   132  127  138 1   
   133  128  129 ar  
   134  128  130 ar  
   135  129  131 ar  
   136  129  139 1   
   137  130  132 ar  
   138  130  140 1   
   139  131  133 ar  
   140  131  141 1   
   141  132  133 ar  
   142  132  142 1   
   143  133  134 1   
   144  134  143 1   
   145  144  145 1   
   146  144  153 1   
   147  145  146 1   
   148  145  148 1   
   149  145  154 1   
   150  146  147 2   
   151  146  159 1   
   152  148  149 1   
   153  148  155 1   
   154  148  156 1   
   155  149  150 1   
   156  149  157 1   
   157  149  158 1   
   158  150  151 1   
   159  150  152 1   
   160  159  160 1   
   161  159  168 1   
   162  160  161 1   
   163  160  163 1   
   164  160  169 1   
   165  161  162 2   
   166  161  174 1   
   167  163  164 1   
   168  163  170 1   
   169  163  171 1   
   170  164  165 1   
   171  164  172 1   
   172  164  173 1   
   173  165  166 1   
   174  165  167 1   
   175  174  175 1   
   176  174  179 1   
   177  175  176 1   
   178  175  177 1   
   179  175  178 1   
   180  181  183 1   
   181  181  185 1   
   182  182  184 1   
   183  182  186 1   
   184  187  188 1   
   185  187  189 1   
   186  190  191 1   
   187  190  192 1   
   188  193  194 1   
   189  193  195 1   
@<TRIPOS>SUBSTRUCTURE
     1 MOL         1 TEMP              0 ****  ****    0 ROOT
