@<TRIPOS>MOLECULE
MOL
  192   187     1     0     0
SMALL
resp


@<TRIPOS>ATOM
      1 C1          5.1360   -6.8110   -0.4750 c3        1 MOL     -0.374834
      2 C2          4.6590   -5.4960    0.0960 c         1 MOL      0.649645
      3 O1          4.2930   -5.3610    1.2520 o         1 MOL     -0.560907
      4 H1          6.2200   -6.8780   -0.3760 hc        1 MOL      0.097116
      5 H2          4.6710   -7.6330    0.0680 hc        1 MOL      0.097116
      6 H3          4.8640   -6.8710   -1.5290 hc        1 MOL      0.097116
      7 N1          4.7870   -4.4560   -0.7130 n         1 MOL     -0.450569
      8 C3          4.3390   -3.1590   -0.3360 c3        1 MOL      0.094188
      9 C4          2.8030   -2.9330   -0.2950 c         1 MOL      0.422494
     10 O2          2.3280   -2.1760    0.4890 o         1 MOL     -0.435024
     11 C5          5.0150   -2.0460   -1.1830 c3        1 MOL     -0.007267
     12 C6          4.7950   -2.2820   -2.6620 c         1 MOL      0.682462
     13 O3          4.0500   -1.5220   -3.3560 o         1 MOL     -0.712121
     14 O4          5.5310   -3.1200   -3.1700 o         1 MOL     -0.712121
     15 H4          5.1200   -4.5970   -1.6550 hn        1 MOL      0.268898
     16 H5          4.6280   -2.9380    0.6950 h1        1 MOL      0.067678
     17 H6          6.0620   -2.0180   -0.8990 hc        1 MOL     -0.040752
     18 H7          4.5130   -1.1170   -0.9210 hc        1 MOL     -0.040752
     19 N2          2.0280   -3.6220   -1.0910 n         1 MOL     -0.497029
     20 C7          0.5750   -3.3840   -1.2720 c3        1 MOL      0.214442
     21 C8         -0.1610   -3.6410    0.0830 c         1 MOL      0.327335
     22 O5          0.1180   -4.5840    0.8450 o         1 MOL     -0.496943
     23 C9          0.0520   -4.3650   -2.4040 c3        1 MOL     -0.021939
     24 C10         0.5800   -4.1270   -3.8430 c3        1 MOL     -0.340913
     25 C11         0.3370   -2.7630   -4.5130 c3        1 MOL     -0.165374
     26 C12         0.8630   -2.4980   -5.8940 c3        1 MOL      0.123531
     27 N3         -0.2290   -2.8170   -6.8580 n4        1 MOL     -0.335347
     28 H8          2.4350   -4.3650   -1.6390 hn        1 MOL      0.277953
     29 H9          0.5620   -2.3360   -1.5640 h1        1 MOL      0.150807
     30 H10        -0.9920   -4.0720   -2.5330 hc        1 MOL      0.056779
     31 H11         0.1860   -5.4110   -2.1290 hc        1 MOL      0.056779
     32 H12         0.1380   -4.8770   -4.4970 hc        1 MOL      0.108494
     33 H13         1.6560   -4.3400   -3.8400 hc        1 MOL      0.108494
     34 H14         0.8530   -2.1080   -3.8230 hc        1 MOL      0.091275
     35 H15        -0.6750   -2.3690   -4.4570 hc        1 MOL      0.091275
     36 H16         1.6230   -3.2450   -6.0870 hx        1 MOL      0.082397
     37 H17         1.2850   -1.5220   -6.1480 hx        1 MOL      0.082397
     38 H18         0.0690   -2.7180   -7.8180 hn        1 MOL      0.310786
     39 H19        -0.4440   -3.8090   -6.8350 hn        1 MOL      0.310786
     40 H20        -1.0830   -2.3350   -6.6220 hn        1 MOL      0.310786
     41 N4         -1.1370   -2.7780    0.3520 n         1 MOL     -0.226299
     42 C13        -1.5400   -1.5420   -0.2550 c3        1 MOL     -0.623456
     43 C14        -1.8560   -1.5760   -1.8060 c         1 MOL      0.774362
     44 O6         -1.1690   -0.8670   -2.5760 o         1 MOL     -0.623030
     45 C15        -0.6210   -0.3540    0.2320 c3        1 MOL     -0.274060
     46 C16        -0.4350   -0.3280    1.7420 c         1 MOL      0.845953
     47 O7          0.6240    0.1230    2.2320 o         1 MOL     -0.773555
     48 O8         -1.3440   -0.6440    2.5590 o         1 MOL     -0.773555
     49 H21        -1.5090   -3.0080    1.2560 hn        1 MOL      0.221105
     50 H22        -2.5260   -1.4100    0.1970 h1        1 MOL      0.279776
     51 H23        -1.1440    0.5330   -0.1240 hc        1 MOL      0.144008
     52 H24         0.2820   -0.5860   -0.3360 hc        1 MOL      0.144008
     53 N5         -2.9000   -2.2090   -2.2760 n         1 MOL     -0.438914
     54 C17        -3.7000   -3.1400   -1.3970 c3        1 MOL      0.003106
     55 C18        -4.8120   -3.9900   -2.0290 c         1 MOL      0.568473
     56 O9         -4.9360   -4.1450   -3.1960 o         1 MOL     -0.519286
     57 H25        -3.1080   -2.1190   -3.2630 hn        1 MOL      0.289986
     58 H26        -4.0680   -2.5710   -0.5420 h1        1 MOL      0.073429
     59 H27        -2.9130   -3.7880   -1.0170 h1        1 MOL      0.073429
     60 N6         -5.6650   -4.5750   -1.1000 n         1 MOL     -0.569554
     61 C19        -5.8680   -4.2080    0.2780 c3        1 MOL      0.083545
     62 C20        -6.4910   -2.8690    0.4190 c         1 MOL      0.282653
     63 O10        -6.8280   -2.2890   -0.5910 o         1 MOL     -0.396730
     64 C21        -6.8500   -5.2130    0.9360 c3        1 MOL     -0.131265
     65 C22        -8.1990   -5.3560    0.3580 c         1 MOL      0.806140
     66 O11        -8.3810   -6.2050   -0.5200 o         1 MOL     -0.716204
     67 O12        -9.0940   -4.7040    0.9360 o         1 MOL     -0.716204
     68 H28        -6.4860   -5.0180   -1.4810 hn        1 MOL      0.340462
     69 H29        -4.9220   -4.2160    0.8250 h1        1 MOL      0.019469
     70 H30        -6.8960   -4.9920    2.0050 hc        1 MOL     -0.000101
     71 H31        -6.3610   -6.1770    0.8240 hc        1 MOL     -0.000101
     72 N7         -6.8910   -2.4590    1.6220 n         1 MOL     -0.090272
     73 C23        -7.7340   -1.3470    1.8990 c3        1 MOL     -0.457071
     74 C24        -7.2160    0.0970    1.5730 c         1 MOL      0.529954
     75 O13        -8.0670    0.9940    1.3370 o         1 MOL     -0.499291
     76 H32        -6.5380   -2.9550    2.4290 hn        1 MOL      0.212956
     77 H33        -8.1440   -1.4900    2.9060 h1        1 MOL      0.192333
     78 H34        -8.5570   -1.4380    1.1900 h1        1 MOL      0.192333
     79 N8         -5.8610    0.3340    1.6650 n         1 MOL     -0.117580
     80 C25        -5.1750    1.6040    1.4960 c3        1 MOL     -0.786208
     81 C26        -5.1360    2.1160    0.0390 c         1 MOL      0.727196
     82 O14        -5.0120    1.2890   -0.8720 o         1 MOL     -0.566447
     83 C27        -3.7310    1.5160    2.0500 c3        1 MOL      1.018290
     84 C28        -3.6320    1.5150    3.5860 c3        1 MOL     -0.174815
     85 O15        -2.9500    2.5990    1.6390 oh        1 MOL     -0.611060
     86 H35        -5.2260   -0.4420    1.7890 hn        1 MOL      0.127785
     87 H36        -5.7110    2.3060    2.1340 h1        1 MOL      0.190932
     88 H37        -3.1780    0.6360    1.7180 h1        1 MOL     -0.093318
     89 H38        -2.4540    2.2420    0.9020 ho        1 MOL      0.258701
     90 H39        -4.2230    2.3560    3.9630 hc        1 MOL     -0.022347
     91 H40        -3.9780    0.5310    3.8740 hc        1 MOL     -0.022347
     92 H41        -2.5680    1.5640    3.8230 hc        1 MOL     -0.022347
     93 N9         -5.0840    3.4360   -0.2250 n         1 MOL     -0.136669
     94 C29        -4.9810    4.1300   -1.5320 c3        1 MOL     -0.313363
     95 C30        -3.5650    4.6730   -1.7680 c         1 MOL      0.539395
     96 O16        -3.0830    4.7470   -2.9300 o         1 MOL     -0.581372
     97 C31        -6.1090    5.1600   -1.6850 c3        1 MOL      0.163100
     98 C32        -5.9540    6.1570   -0.5170 c3        1 MOL     -0.143746
     99 C33        -7.4370    4.4880   -1.7480 c3        1 MOL     -0.150966
    100 C34        -7.0390    7.2720   -0.5800 c3        1 MOL     -0.113578
    101 H42        -5.2330    3.9640    0.6240 hn        1 MOL      0.155986
    102 H43        -5.1160    3.3390   -2.2750 h1        1 MOL      0.164421
    103 H44        -6.0290    5.7580   -2.5910 hc        1 MOL      0.035497
    104 H45        -4.9710    6.5770   -0.7160 hc        1 MOL      0.063431
    105 H46        -6.1430    5.6200    0.4060 hc        1 MOL      0.063431
    106 H47        -7.6300    3.9310   -0.8340 hc        1 MOL      0.047353
    107 H48        -8.1870    5.2140   -2.0830 hc        1 MOL      0.047353
    108 H49        -7.5340    3.6960   -2.5030 hc        1 MOL      0.047353
    109 H50        -7.9890    6.9270   -0.1620 hc        1 MOL      0.033747
    110 H51        -6.7450    8.1400    0.0080 hc        1 MOL      0.033747
    111 H52        -7.2910    7.6990   -1.5520 hc        1 MOL      0.033747
    112 N10        -2.7690    4.9160   -0.7990 n         1 MOL     -0.328379
    113 C35        -1.3710    5.2650   -0.8620 c3        1 MOL      0.104680
    114 C36        -0.5260    3.9890   -0.8800 c         1 MOL      0.607664
    115 O17        -1.0070    2.9140   -0.3950 o         1 MOL     -0.508179
    116 C37        -0.9720    6.2370    0.2790 c3        1 MOL      0.255412
    117 C38        -1.7120    7.5320    0.3240 c3        1 MOL     -0.184932
    118 O18         0.3670    6.5550    0.2610 oh        1 MOL     -0.630376
    119 H53        -3.1400    4.6860    0.1050 hn        1 MOL      0.136651
    120 H54        -1.1770    5.7220   -1.8300 h1        1 MOL      0.062995
    121 H55        -1.1710    5.7320    1.2330 h1        1 MOL      0.023707
    122 H56         0.5060    7.0200    1.0870 ho        1 MOL      0.415758
    123 H57        -1.4460    8.0960    1.2130 hc        1 MOL      0.046612
    124 H58        -1.3940    8.2010   -0.4710 hc        1 MOL      0.046612
    125 H59        -2.7980    7.4970    0.3610 hc        1 MOL      0.046612
    126 N11         0.6910    4.0070   -1.3710 n         1 MOL     -0.494628
    127 C39         1.6690    2.9430   -1.3780 c3        1 MOL     -0.136115
    128 C40         3.1120    3.4410   -1.1910 c         1 MOL      0.724938
    129 O19         3.4870    4.5730   -1.5260 o         1 MOL     -0.557992
    130 C41         1.5420    2.1200   -2.6250 c3        1 MOL      0.119814
    131 C42         2.1940    0.7460   -2.5250 c3        1 MOL      0.050570
    132 O20         2.0200    2.7620   -3.7580 oh        1 MOL     -0.595426
    133 H60         1.1080    4.8360   -1.7590 hn        1 MOL      0.299942
    134 H61         1.4180    2.2470   -0.5710 h1        1 MOL      0.126492
    135 H62         0.4520    2.1160   -2.7560 h1        1 MOL      0.094326
    136 H63         1.5230    3.5900   -3.8530 ho        1 MOL      0.389777
    137 H64         1.8400    0.1190   -1.7110 hc        1 MOL      0.010164
    138 H65         2.0780    0.1620   -3.4370 hc        1 MOL      0.010164
    139 H66         3.2790    0.7790   -2.4410 hc        1 MOL      0.010164
    140 N12         4.0000    2.5740   -0.6610 n         1 MOL     -0.624983
    141 C43         5.3550    3.0010   -0.3880 c3        1 MOL     -0.134139
    142 C44         5.9930    2.2850    0.8610 c         1 MOL      0.553417
    143 O21         7.1690    2.4810    1.0230 o         1 MOL     -0.527607
    144 C45         6.2900    2.8930   -1.6720 c3        1 MOL     -0.113058
    145 C46         6.7090    1.4340   -2.0040 c3        1 MOL      0.007702
    146 C47         7.7540    1.3950   -3.1550 c3        1 MOL     -0.246885
    147 C48         7.1860    1.7620   -4.4980 c3        1 MOL      0.073678
    148 N13         7.6160    3.0790   -4.9580 n4        1 MOL     -0.391248
    149 H67         3.7070    1.6610   -0.3420 hn        1 MOL      0.356326
    150 H68         5.3430    4.0670   -0.1800 h1        1 MOL      0.161043
    151 H69         7.1930    3.4580   -1.4280 hc        1 MOL      0.060652
    152 H70         5.7450    3.3650   -2.4850 hc        1 MOL      0.060652
    153 H71         5.8400    0.8310   -2.2420 hc        1 MOL      0.098837
    154 H72         7.2280    0.9410   -1.1770 hc        1 MOL      0.098837
    155 H73         7.9950    0.3440   -3.3110 hc        1 MOL      0.093979
    156 H74         8.6030    2.0120   -2.8550 hc        1 MOL      0.093979
    157 H75         6.0990    1.7650   -4.3720 hx        1 MOL      0.101146
    158 H76         7.4520    0.9930   -5.2130 hx        1 MOL      0.101146
    159 H77         8.6030    3.1360   -5.1620 hn        1 MOL      0.315736
    160 H78         7.1020    3.2810   -5.7940 hn        1 MOL      0.315736
    161 H79         7.4260    3.7710   -4.2350 hn        1 MOL      0.315736
    162 N14         5.3140    1.4820    1.6900 n         1 MOL     -0.327031
    163 C49         6.0050    0.8130    2.8450 c3        1 MOL     -0.282636
    164 C50         6.9820   -0.3190    2.4970 c         1 MOL      0.616327
    165 O22         6.5760   -1.1230    1.7010 o         1 MOL     -0.431897
    166 C51         4.9810    0.3080    3.8900 c3        1 MOL     -0.264867
    167 C52         3.9760    1.3870    4.3150 c3        1 MOL      0.341442
    168 C53         3.2770    0.9420    5.5680 c         1 MOL      0.486489
    169 O23         2.6270   -0.1480    5.5570 o         1 MOL     -0.672653
    170 O24         3.4090    1.7250    6.5820 o         1 MOL     -0.672653
    171 H80         4.3080    1.3570    1.6250 hn        1 MOL      0.276918
    172 H81         6.5640    1.5610    3.4070 h1        1 MOL      0.109749
    173 H82         5.4760   -0.0460    4.7990 hc        1 MOL      0.094147
    174 H83         4.4670   -0.5440    3.4320 hc        1 MOL      0.094147
    175 H84         3.2500    1.4750    3.5100 hc        1 MOL     -0.049767
    176 H85         4.3540    2.4010    4.4290 hc        1 MOL     -0.049767
    177 N15         8.2420   -0.2510    3.0320 n         1 MOL     -0.435261
    178 C54         9.2330   -1.2870    2.6560 c3        1 MOL     -0.072947
    179 H86        10.2400   -0.8930    2.7930 h1        1 MOL      0.071866
    180 H87         9.0980   -2.1660    3.2870 h1        1 MOL      0.071866
    181 H88         9.0910   -1.5640    1.6110 h1        1 MOL      0.071866
    182 H89         8.5680    0.5700    3.5260 hn        1 MOL      0.305016
    183 Ca1         0.2810   -0.9060    4.6770 Ca        1 MOL      1.723538
    184 O25         0.9360   -2.5610    6.7250 oh        1 MOL     -0.901677
    185 H90         1.5890   -2.7140    7.4080 ho        1 MOL      0.441742
    186 H91         0.1660   -3.0360    7.0240 ho        1 MOL      0.441742
    187 O26         0.0600    1.9520    4.9870 oh        1 MOL     -0.901677
    188 H92         0.3720    2.8240    5.2220 ho        1 MOL      0.441742
    189 H93        -0.6370    1.7640    5.6160 ho        1 MOL      0.441742
    190 O27         1.8890   -2.3800    3.0580 oh        1 MOL     -0.901677
    191 H94         2.0550   -3.3180    3.0510 ho        1 MOL      0.441742
    192 H95         1.9960   -2.1120    2.1510 ho        1 MOL      0.441742
@<TRIPOS>BOND
     1    1    2 1   
     2    1    4 1   
     3    1    5 1   
     4    1    6 1   
     5    2    3 2   
     6    2    7 1   
     7    7    8 1   
     8    7   15 1   
     9    8    9 1   
    10    8   11 1   
    11    8   16 1   
    12    9   10 2   
    13    9   19 1   
    14   11   12 1   
    15   11   17 1   
    16   11   18 1   
    17   12   13 1   
    18   12   14 1   
    19   19   20 1   
    20   19   28 1   
    21   20   21 1   
    22   20   23 1   
    23   20   29 1   
    24   21   22 2   
    25   21   41 1   
    26   23   24 1   
    27   23   30 1   
    28   23   31 1   
    29   24   25 1   
    30   24   32 1   
    31   24   33 1   
    32   25   26 1   
    33   25   34 1   
    34   25   35 1   
    35   26   27 1   
    36   26   36 1   
    37   26   37 1   
    38   27   38 1   
    39   27   39 1   
    40   27   40 1   
    41   41   42 1   
    42   41   49 1   
    43   42   43 1   
    44   42   45 1   
    45   42   50 1   
    46   43   44 2   
    47   43   53 1   
    48   45   46 1   
    49   45   51 1   
    50   45   52 1   
    51   46   47 1   
    52   46   48 1   
    53   53   54 1   
    54   53   57 1   
    55   54   55 1   
    56   54   58 1   
    57   54   59 1   
    58   55   56 2   
    59   55   60 1   
    60   60   61 1   
    61   60   68 1   
    62   61   62 1   
    63   61   64 1   
    64   61   69 1   
    65   62   63 2   
    66   62   72 1   
    67   64   65 1   
    68   64   70 1   
    69   64   71 1   
    70   65   66 1   
    71   65   67 1   
    72   72   73 1   
    73   72   76 1   
    74   73   74 1   
    75   73   77 1   
    76   73   78 1   
    77   74   75 2   
    78   74   79 1   
    79   79   80 1   
    80   79   86 1   
    81   80   81 1   
    82   80   83 1   
    83   80   87 1   
    84   81   82 2   
    85   81   93 1   
    86   83   84 1   
    87   83   85 1   
    88   83   88 1   
    89   84   90 1   
    90   84   91 1   
    91   84   92 1   
    92   85   89 1   
    93   93   94 1   
    94   93  101 1   
    95   94   95 1   
    96   94   97 1   
    97   94  102 1   
    98   95   96 2   
    99   95  112 1   
   100   97   98 1   
   101   97   99 1   
   102   97  103 1   
   103   98  100 1   
   104   98  104 1   
   105   98  105 1   
   106   99  106 1   
   107   99  107 1   
   108   99  108 1   
   109  100  109 1   
   110  100  110 1   
   111  100  111 1   
   112  112  113 1   
   113  112  119 1   
   114  113  114 1   
   115  113  116 1   
   116  113  120 1   
   117  114  115 2   
   118  114  126 1   
   119  116  117 1   
   120  116  118 1   
   121  116  121 1   
   122  117  123 1   
   123  117  124 1   
   124  117  125 1   
   125  118  122 1   
   126  126  127 1   
   127  126  133 1   
   128  127  128 1   
   129  127  130 1   
   130  127  134 1   
   131  128  129 2   
   132  128  140 1   
   133  130  131 1   
   134  130  132 1   
   135  130  135 1   
   136  131  137 1   
   137  131  138 1   
   138  131  139 1   
   139  132  136 1   
   140  140  141 1   
   141  140  149 1   
   142  141  142 1   
   143  141  144 1   
   144  141  150 1   
   145  142  143 2   
   146  142  162 1   
   147  144  145 1   
   148  144  151 1   
   149  144  152 1   
   150  145  146 1   
   151  145  153 1   
   152  145  154 1   
   153  146  147 1   
   154  146  155 1   
   155  146  156 1   
   156  147  148 1   
   157  147  157 1   
   158  147  158 1   
   159  148  159 1   
   160  148  160 1   
   161  148  161 1   
   162  162  163 1   
   163  162  171 1   
   164  163  164 1   
   165  163  166 1   
   166  163  172 1   
   167  164  165 2   
   168  164  177 1   
   169  166  167 1   
   170  166  173 1   
   171  166  174 1   
   172  167  168 1   
   173  167  175 1   
   174  167  176 1   
   175  168  169 1   
   176  168  170 1   
   177  177  178 1   
   178  177  182 1   
   179  178  179 1   
   180  178  180 1   
   181  178  181 1   
   182  184  185 1   
   183  184  186 1   
   184  187  188 1   
   185  187  189 1   
   186  190  191 1   
   187  190  192 1   
@<TRIPOS>SUBSTRUCTURE
     1 MOL         1 TEMP              0 ****  ****    0 ROOT
