@<TRIPOS>MOLECULE
MOL
  182   178     1     0     0
SMALL
resp


@<TRIPOS>ATOM
      1 C1          0.7220   -4.0990    5.8210 c3        1 MOL     -0.372077
      2 C2          0.8880   -3.8750    4.3210 c         1 MOL      0.709655
      3 O1         -0.1330   -3.7860    3.6340 o         1 MOL     -0.606791
      4 H1         -0.0320   -4.8680    5.9920 hc        1 MOL      0.107498
      5 H2          1.6720   -4.4210    6.2480 hc        1 MOL      0.107498
      6 H3          0.4070   -3.1690    6.2950 hc        1 MOL      0.107498
      7 N1          2.0980   -3.6860    3.8280 n         1 MOL     -0.652401
      8 C3          2.3370   -3.3100    2.4030 c3        1 MOL      0.205247
      9 C4          2.3110   -4.5070    1.3730 c         1 MOL      0.508527
     10 O2          2.5930   -5.5850    1.8040 o         1 MOL     -0.547448
     11 C5          3.6640   -2.5560    2.3090 c3        1 MOL     -0.524497
     12 C6          3.6500   -1.4530    1.2630 c         1 MOL      0.570281
     13 O3          3.8230   -0.2610    1.5270 o         1 MOL     -0.683838
     14 O4          3.5420   -1.8540    0.1180 o         1 MOL     -0.683838
     15 H4          2.8610   -3.6800    4.4830 hn        1 MOL      0.347289
     16 H5          1.5430   -2.6020    2.1880 h1        1 MOL      0.183384
     17 H6          4.3650   -3.3630    2.1110 hc        1 MOL      0.170215
     18 H7          3.7910   -2.1790    3.3260 hc        1 MOL      0.170215
     19 N2          2.1390   -4.2440    0.0600 n         1 MOL     -0.383291
     20 C7          2.2550   -5.3140   -0.9940 c3        1 MOL      0.070731
     21 C8          3.6040   -5.1190   -1.7570 c         1 MOL      0.442600
     22 O5          4.1630   -6.1120   -2.2580 o         1 MOL     -0.535916
     23 C9          0.9600   -5.5140   -1.8740 c3        1 MOL     -0.102706
     24 C10        -0.0750   -6.3590   -1.0270 c3        1 MOL      0.317292
     25 C11        -1.1930   -6.7750   -2.0630 c3        1 MOL     -0.078911
     26 C12        -2.3370   -7.4570   -1.3950 c3        1 MOL     -0.011391
     27 N3         -3.3940   -7.8110   -2.3790 n4        1 MOL     -0.133163
     28 H8          2.0470   -3.2660   -0.1840 hn        1 MOL      0.451722
     29 H9          2.3570   -6.2930   -0.5310 h1        1 MOL      0.084517
     30 H10         1.3010   -6.1340   -2.7090 hc        1 MOL     -0.011529
     31 H11         0.4370   -4.5940   -2.1530 hc        1 MOL     -0.011529
     32 H12        -0.3760   -5.7180   -0.1990 hc        1 MOL     -0.064472
     33 H13         0.3980   -7.2340   -0.5830 hc        1 MOL     -0.064472
     34 H14        -0.7620   -7.3900   -2.8480 hc        1 MOL      0.043922
     35 H15        -1.5950   -5.8060   -2.3630 hc        1 MOL      0.043922
     36 H16        -2.7580   -6.7480   -0.6840 hx        1 MOL      0.086178
     37 H17        -2.0240   -8.3680   -0.8880 hx        1 MOL      0.086178
     38 H18        -3.0310   -8.1260   -3.2680 hn        1 MOL      0.216426
     39 H19        -4.1080   -8.3910   -1.9640 hn        1 MOL      0.216426
     40 H20        -3.9380   -7.0050   -2.6620 hn        1 MOL      0.216426
     41 N4          4.1560   -3.8700   -1.8100 n         1 MOL     -0.261147
     42 C13         5.3860   -3.5470   -2.5400 c3        1 MOL      0.302935
     43 C14         6.5020   -3.3210   -1.5310 c         1 MOL      0.341425
     44 O6          7.6470   -3.7200   -1.7890 o         1 MOL     -0.566537
     45 C15         5.1240   -2.3120   -3.4610 c3        1 MOL     -0.533439
     46 C16         4.4380   -1.1240   -2.7970 c         1 MOL      0.909457
     47 O7          5.0780   -0.4200   -1.9840 o         1 MOL     -0.759612
     48 O8          3.2690   -0.9260   -3.0770 o         1 MOL     -0.759612
     49 H21         3.7150   -3.1250   -1.2960 hn        1 MOL     -0.012551
     50 H22         5.6650   -4.4370   -3.1070 h1        1 MOL      0.039143
     51 H23         4.5280   -2.6390   -4.3110 hc        1 MOL      0.139325
     52 H24         6.1360   -2.0630   -3.7890 hc        1 MOL      0.139325
     53 N5          6.2120   -2.6670   -0.4690 n         1 MOL      0.024477
     54 C17         7.0970   -2.5930    0.6980 c3        1 MOL      0.045429
     55 C18         7.3630   -1.1590    1.1180 c         1 MOL      0.513373
     56 O9          8.2080   -1.0060    2.0330 o         1 MOL     -0.541022
     57 H25         5.2350   -2.4270   -0.3800 hn        1 MOL      0.033382
     58 H26         8.0110   -3.1310    0.4500 h1        1 MOL      0.045264
     59 H27         6.6350   -3.1600    1.5080 h1        1 MOL      0.045264
     60 N6          6.8600   -0.0630    0.4130 n         1 MOL     -0.279463
     61 C19         7.3340    1.3170    0.4840 c3        1 MOL      0.187606
     62 C20         6.1220    2.3060    0.2450 c         1 MOL      0.336324
     63 O10         5.0180    1.9860   -0.0310 o         1 MOL     -0.334296
     64 C21         8.4540    1.6980   -0.4770 c3        1 MOL     -0.386402
     65 C22         7.9500    1.8200   -1.9000 c         1 MOL      0.606568
     66 N7          7.7200    3.0750   -2.3470 n         1 MOL     -0.719152
     67 O11         7.9070    0.8030   -2.6050 o         1 MOL     -0.489086
     68 H28         6.4060   -0.1920   -0.4740 hn        1 MOL      0.180571
     69 H29         7.7580    1.3580    1.4960 h1        1 MOL      0.047193
     70 H30         9.2070    0.9160   -0.3700 hc        1 MOL      0.116401
     71 H31         8.9440    2.6170   -0.1510 hc        1 MOL      0.116401
     72 H32         7.8200    3.8380   -1.6920 hn        1 MOL      0.338663
     73 H33         7.5770    3.1940   -3.3470 hn        1 MOL      0.338663
     74 N8          6.3450    3.5690    0.4970 n         1 MOL     -0.416270
     75 C23         5.3350    4.6710    0.1900 c3        1 MOL     -0.077384
     76 C24         4.0470    4.6090    0.9780 c         1 MOL      0.608781
     77 O12         4.0680    4.2660    2.1620 o         1 MOL     -0.481072
     78 H34         7.2000    3.8500    0.9630 hn        1 MOL      0.307729
     79 H35         4.9690    4.4310   -0.8140 h1        1 MOL      0.065428
     80 H36         5.8340    5.6300    0.1630 h1        1 MOL      0.065428
     81 N9          2.9260    4.8490    0.2320 n         1 MOL     -0.633609
     82 C25         1.5470    4.7440    0.8140 c3        1 MOL      0.011493
     83 C26         1.1040    3.2780    1.0010 c         1 MOL      0.738185
     84 O13         1.5230    2.4580    0.2020 o         1 MOL     -0.647648
     85 C27         0.5100    5.3840   -0.0750 c3        1 MOL      0.034409
     86 C28         0.7030    6.8670   -0.4660 ca        1 MOL      0.004104
     87 C29         0.9170    7.9070    0.5580 ca        1 MOL     -0.174305
     88 C30         0.4320    7.2960   -1.8380 ca        1 MOL     -0.174305
     89 C31         0.8180    9.2990    0.2000 ca        1 MOL     -0.209730
     90 C32         0.5530    8.6300   -2.2120 ca        1 MOL     -0.209730
     91 C33         0.6970    9.6340   -1.1540 ca        1 MOL      0.289192
     92 O14         0.5880   10.9770   -1.5200 oh        1 MOL     -0.484419
     93 H37         3.0160    5.1550   -0.7270 hn        1 MOL      0.332840
     94 H38         1.5360    5.2510    1.7780 h1        1 MOL      0.085208
     95 H39        -0.3990    5.2740    0.5330 hc        1 MOL      0.005343
     96 H40         0.3610    4.8140   -0.9910 hc        1 MOL      0.005343
     97 H41         0.8780    7.6190    1.5960 ha        1 MOL      0.141275
     98 H42         0.1620    6.5590   -2.5820 ha        1 MOL      0.141275
     99 H43         0.7880   10.0380    0.9880 ha        1 MOL      0.158094
    100 H44         0.6510    8.7980   -3.2750 ha        1 MOL      0.158094
    101 H45         0.5770   11.5910   -0.7930 ho        1 MOL      0.374226
    102 N10         0.3060    3.0180    2.0350 n         1 MOL     -0.677018
    103 C34         0.0950    1.6580    2.6000 c3        1 MOL      0.110623
    104 C35        -0.0600    0.5470    1.5600 c         1 MOL      0.396399
    105 O15         0.9740    0.0870    1.0320 o         1 MOL     -0.534714
    106 C36         1.1750    1.2750    3.6170 c3        1 MOL      0.250322
    107 C37         0.9730   -0.1490    4.1730 c3        1 MOL     -0.189441
    108 C38         1.4690    2.2970    4.7250 c3        1 MOL     -0.160163
    109 C39        -0.1330   -0.1520    5.2450 c3        1 MOL     -0.361101
    110 H46        -0.1360    3.7260    2.6120 hn        1 MOL      0.367949
    111 H47        -0.8340    1.5840    3.1740 h1        1 MOL      0.022288
    112 H48         2.0510    1.0740    3.0130 hc        1 MOL     -0.024632
    113 H49         1.9020   -0.4770    4.6330 hc        1 MOL      0.116712
    114 H50         0.5840   -0.8720    3.4570 hc        1 MOL      0.116712
    115 H51         2.3190    2.0140    5.3490 hc        1 MOL      0.040448
    116 H52         1.6870    3.2920    4.3100 hc        1 MOL      0.040448
    117 H53         0.6020    2.4050    5.3750 hc        1 MOL      0.040448
    118 H54         0.1360    0.3670    6.1660 hc        1 MOL      0.089290
    119 H55        -1.0610    0.2380    4.8360 hc        1 MOL      0.089290
    120 H56        -0.3910   -1.1640    5.5380 hc        1 MOL      0.089290
    121 N11        -1.2950    0.0640    1.3150 n         1 MOL     -0.200519
    122 C40        -1.5890   -0.9620    0.3210 c3        1 MOL     -0.404523
    123 C41        -2.9910   -0.9700   -0.3120 c         1 MOL      0.516944
    124 O16        -3.4030   -1.9360   -0.9360 o         1 MOL     -0.549838
    125 C42        -1.2200   -2.3690    0.8540 c3        1 MOL      0.462401
    126 O17        -1.8770   -2.5510    2.0740 oh        1 MOL     -0.677896
    127 H57        -2.1000    0.4170    1.8030 hn        1 MOL      0.274293
    128 H58        -0.8690   -0.6680   -0.4430 h1        1 MOL      0.221853
    129 H59        -0.1410   -2.4800    0.9030 h1        1 MOL     -0.065362
    130 H60        -1.6400   -3.1660    0.2350 h1        1 MOL     -0.065362
    131 H61        -1.3990   -3.0240    2.7570 ho        1 MOL      0.414187
    132 N12        -3.8210    0.0020    0.0620 n         1 MOL     -0.251428
    133 C43        -5.2620    0.0100   -0.1870 c3        1 MOL      0.040525
    134 C44        -5.4510    0.6170   -1.6170 c         1 MOL      0.678191
    135 O18        -4.5680    1.2280   -2.1590 o         1 MOL     -0.580069
    136 C45        -5.9400    0.7740    0.8870 c3        1 MOL     -0.159976
    137 H62        -3.3620    0.7530    0.5590 hn        1 MOL      0.155868
    138 H63        -5.6410   -1.0140   -0.1410 h1        1 MOL      0.140067
    139 H64        -5.8310    0.3720    1.8930 hc        1 MOL      0.055917
    140 H65        -5.6600    1.8260    0.8850 hc        1 MOL      0.055917
    141 H66        -6.9990    0.9820    0.6930 hc        1 MOL      0.055917
    142 N13        -6.6060    0.3860   -2.2080 n         1 MOL     -0.668106
    143 C46        -7.7820   -0.4380   -1.7780 c3        1 MOL      0.314147
    144 C47        -9.0600    0.0510   -2.5070 c         1 MOL      0.515164
    145 O19        -9.0320    0.3240   -3.7220 o         1 MOL     -0.544804
    146 C48        -7.5570   -1.9420   -1.9330 c3        1 MOL     -0.386236
    147 H67        -6.5960    0.7070   -3.1670 hn        1 MOL      0.341358
    148 H68        -8.0170   -0.2860   -0.7250 h1        1 MOL     -0.062603
    149 H69        -8.5010   -2.4550   -1.7420 hc        1 MOL      0.110847
    150 H70        -7.3420   -2.0220   -2.9980 hc        1 MOL      0.110847
    151 H71        -6.7380   -2.3160   -1.3330 hc        1 MOL      0.110847
    152 N14       -10.1650    0.3950   -1.8560 n         1 MOL     -0.567165
    153 C49       -10.5620    0.1340   -0.4550 c3        1 MOL      0.201461
    154 C50        -9.9690    1.1290    0.5380 c         1 MOL      0.378461
    155 O20        -9.4890    0.7080    1.5690 o         1 MOL     -0.531091
    156 C51       -12.1130   -0.0080   -0.4260 c3        1 MOL     -0.065768
    157 C52       -12.8110   -0.2570    0.9130 c3        1 MOL     -0.245031
    158 C53       -14.3230   -0.4700    0.7340 c         1 MOL      0.714614
    159 O21       -14.7950   -1.6080    0.4090 o         1 MOL     -0.661271
    160 O22       -15.0540    0.4930    0.9100 o         1 MOL     -0.661271
    161 H72       -10.9450    0.5710   -2.4770 hn        1 MOL      0.314024
    162 H73       -10.1390   -0.8020   -0.0900 h1        1 MOL      0.064760
    163 H74       -12.2840   -0.8920   -1.0340 hc        1 MOL      0.035645
    164 H75       -12.5560    0.9270   -0.7620 hc        1 MOL      0.035645
    165 H76       -12.6500    0.5900    1.5690 hc        1 MOL      0.058115
    166 H77       -12.3460   -1.0790    1.4580 hc        1 MOL      0.058115
    167 N15        -9.9180    2.3720    0.1530 n         1 MOL     -0.211054
    168 C54        -9.3650    3.3990    1.0200 c3        1 MOL     -0.152891
    169 H78        -8.3430    3.6220    0.7120 h1        1 MOL      0.086530
    170 H79        -9.9710    4.3030    0.9460 h1        1 MOL      0.086530
    171 H80        -9.3650    3.0450    2.0500 h1        1 MOL      0.086530
    172 H81       -10.3790    2.6300   -0.7000 hn        1 MOL      0.246938
    173 Ca1         2.8320    0.6060   -0.8010 Ca        1 MOL      1.782439
    174 O23         3.5330    2.4540   -2.5830 oh        1 MOL     -0.847964
    175 H82         3.9860    2.0560   -3.3260 ho        1 MOL      0.414947
    176 H83         3.5010    3.3880   -2.8000 ho        1 MOL      0.414947
    177 O24         0.8920    1.3500   -2.6520 oh        1 MOL     -0.847964
    178 H84        -0.0160    1.6040   -2.8110 ho        1 MOL      0.414947
    179 H85         1.4080    2.0900   -2.9550 ho        1 MOL      0.414947
    180 O25         1.0740   -2.0180   -1.6370 oh        1 MOL     -0.847964
    181 H86         1.6320   -1.9480   -2.4080 ho        1 MOL      0.414947
    182 H87         0.2690   -2.4100   -1.9590 ho        1 MOL      0.414947
@<TRIPOS>BOND
     1    1    2 1   
     2    1    4 1   
     3    1    5 1   
     4    1    6 1   
     5    2    3 2   
     6    2    7 1   
     7    7    8 1   
     8    7   15 1   
     9    8    9 1   
    10    8   11 1   
    11    8   16 1   
    12    9   10 2   
    13    9   19 1   
    14   11   12 1   
    15   11   17 1   
    16   11   18 1   
    17   12   13 1   
    18   12   14 1   
    19   19   20 1   
    20   19   28 1   
    21   20   21 1   
    22   20   23 1   
    23   20   29 1   
    24   21   22 2   
    25   21   41 1   
    26   23   24 1   
    27   23   30 1   
    28   23   31 1   
    29   24   25 1   
    30   24   32 1   
    31   24   33 1   
    32   25   26 1   
    33   25   34 1   
    34   25   35 1   
    35   26   27 1   
    36   26   36 1   
    37   26   37 1   
    38   27   38 1   
    39   27   39 1   
    40   27   40 1   
    41   41   42 1   
    42   41   49 1   
    43   42   43 1   
    44   42   45 1   
    45   42   50 1   
    46   43   44 2   
    47   43   53 1   
    48   45   46 1   
    49   45   51 1   
    50   45   52 1   
    51   46   47 1   
    52   46   48 1   
    53   53   54 1   
    54   53   57 1   
    55   54   55 1   
    56   54   58 1   
    57   54   59 1   
    58   55   56 2   
    59   55   60 1   
    60   60   61 1   
    61   60   68 1   
    62   61   62 1   
    63   61   64 1   
    64   61   69 1   
    65   62   63 2   
    66   62   74 1   
    67   64   65 1   
    68   64   70 1   
    69   64   71 1   
    70   65   66 1   
    71   65   67 2   
    72   66   72 1   
    73   66   73 1   
    74   74   75 1   
    75   74   78 1   
    76   75   76 1   
    77   75   79 1   
    78   75   80 1   
    79   76   77 2   
    80   76   81 1   
    81   81   82 1   
    82   81   93 1   
    83   82   83 1   
    84   82   85 1   
    85   82   94 1   
    86   83   84 2   
    87   83  102 1   
    88   85   86 1   
    89   85   95 1   
    90   85   96 1   
    91   86   87 ar  
    92   86   88 ar  
    93   87   89 ar  
    94   87   97 1   
    95   88   90 ar  
    96   88   98 1   
    97   89   91 ar  
    98   89   99 1   
    99   90   91 ar  
   100   90  100 1   
   101   91   92 1   
   102   92  101 1   
   103  102  103 1   
   104  102  110 1   
   105  103  104 1   
   106  103  106 1   
   107  103  111 1   
   108  104  105 2   
   109  104  121 1   
   110  106  107 1   
   111  106  108 1   
   112  106  112 1   
   113  107  109 1   
   114  107  113 1   
   115  107  114 1   
   116  108  115 1   
   117  108  116 1   
   118  108  117 1   
   119  109  118 1   
   120  109  119 1   
   121  109  120 1   
   122  121  122 1   
   123  121  127 1   
   124  122  123 1   
   125  122  125 1   
   126  122  128 1   
   127  123  124 2   
   128  123  132 1   
   129  125  126 1   
   130  125  129 1   
   131  125  130 1   
   132  126  131 1   
   133  132  133 1   
   134  132  137 1   
   135  133  134 1   
   136  133  136 1   
   137  133  138 1   
   138  134  135 2   
   139  134  142 1   
   140  136  139 1   
   141  136  140 1   
   142  136  141 1   
   143  142  143 1   
   144  142  147 1   
   145  143  144 1   
   146  143  146 1   
   147  143  148 1   
   148  144  145 2   
   149  144  152 1   
   150  146  149 1   
   151  146  150 1   
   152  146  151 1   
   153  152  153 1   
   154  152  161 1   
   155  153  154 1   
   156  153  156 1   
   157  153  162 1   
   158  154  155 2   
   159  154  167 1   
   160  156  157 1   
   161  156  163 1   
   162  156  164 1   
   163  157  158 1   
   164  157  165 1   
   165  157  166 1   
   166  158  159 1   
   167  158  160 1   
   168  167  168 1   
   169  167  172 1   
   170  168  169 1   
   171  168  170 1   
   172  168  171 1   
   173  174  175 1   
   174  174  176 1   
   175  177  178 1   
   176  177  179 1   
   177  180  181 1   
   178  180  182 1   
@<TRIPOS>SUBSTRUCTURE
     1 MOL         1 TEMP              0 ****  ****    0 ROOT
