@<TRIPOS>MOLECULE
MOL
  184   179     1     0     0
SMALL
resp


@<TRIPOS>ATOM
      1 C1          1.2110    6.9830   -1.8230 c3        1 MOL     -0.403412
      2 C2          2.7580    6.8910   -1.5230 c         1 MOL      0.701133
      3 O1          3.0530    7.4330   -0.4860 o         1 MOL     -0.576370
      4 H1          0.6740    6.2900   -1.1750 hc        1 MOL      0.091037
      5 H2          0.8640    7.9990   -1.6360 hc        1 MOL      0.091037
      6 H3          1.0270    6.7210   -2.8650 hc        1 MOL      0.091037
      7 N1          3.5430    6.2820   -2.3760 n         1 MOL     -0.553273
      8 C3          4.9670    6.0550   -2.1400 c3        1 MOL      0.108276
      9 C4          5.1700    4.8430   -1.2040 c         1 MOL      0.628799
     10 O2          5.0700    3.7160   -1.5960 o         1 MOL     -0.562872
     11 C5          5.7250    5.9270   -3.4420 c3        1 MOL     -0.154830
     12 C6          7.2230    5.5780   -3.3260 c         1 MOL      0.713051
     13 O3          7.8140    5.1370   -4.3350 o         1 MOL     -0.725685
     14 O4          7.7430    5.8630   -2.1910 o         1 MOL     -0.725685
     15 H4          3.2390    6.0860   -3.3090 hn        1 MOL      0.303741
     16 H5          5.2900    6.9420   -1.5850 h1        1 MOL      0.027629
     17 H6          5.5810    6.8060   -4.0660 hc        1 MOL      0.004420
     18 H7          5.3180    5.1080   -4.0370 hc        1 MOL      0.004420
     19 N2          5.3910    5.1660    0.0950 n         1 MOL     -0.592930
     20 C7          5.4290    4.2780    1.2220 c3        1 MOL      0.350264
     21 C8          4.0140    3.7590    1.5640 c         1 MOL      0.514736
     22 O5          3.0420    4.3540    1.2210 o         1 MOL     -0.521132
     23 C9          6.2040    4.9290    2.3280 c3        1 MOL     -0.308462
     24 H8          5.3180    6.1060    0.4460 hn        1 MOL      0.302240
     25 H9          5.9620    3.4360    0.7840 h1        1 MOL      0.038247
     26 H10         5.7390    5.9150    2.4310 hc        1 MOL      0.078853
     27 H11         6.2480    4.3280    3.2330 hc        1 MOL      0.078853
     28 H12         7.2190    5.2150    2.0560 hc        1 MOL      0.078853
     29 N3          3.7690    2.6520    2.2920 n         1 MOL     -0.651609
     30 C10         4.7840    1.7670    2.8050 c3        1 MOL      0.249278
     31 C11         4.6730    0.3380    2.1810 c         1 MOL      0.164982
     32 O6          3.6640   -0.0080    1.5940 o         1 MOL     -0.291351
     33 C12         4.6990    1.7200    4.3740 c3        1 MOL     -0.197851
     34 C13         3.4300    1.0730    4.8860 c         1 MOL      0.762739
     35 O7          3.4380   -0.0980    5.2720 o         1 MOL     -0.697350
     36 O8          2.4230    1.7600    4.7040 o         1 MOL     -0.697350
     37 H13         2.8270    2.3790    2.5330 hn        1 MOL      0.387497
     38 H14         5.8090    2.0580    2.5670 h1        1 MOL      0.036799
     39 H15         4.7100    2.7430    4.7230 hc        1 MOL      0.013534
     40 H16         5.6030    1.3010    4.8150 hc        1 MOL      0.013534
     41 N4          5.7430   -0.4320    2.3070 n         1 MOL     -0.359142
     42 C14         5.8840   -1.7850    1.8090 c3        1 MOL     -0.057782
     43 C15         6.6790   -1.7390    0.4820 c         1 MOL      0.787739
     44 O9          7.2330   -0.6480    0.2180 o         1 MOL     -0.573828
     45 H17         6.6370   -0.0480    2.5760 hn        1 MOL      0.295573
     46 H18         4.9000   -2.2470    1.6220 h1        1 MOL      0.093456
     47 H19         6.4260   -2.4330    2.4910 h1        1 MOL      0.093456
     48 N5          6.7930   -2.7860   -0.2970 n         1 MOL     -0.914679
     49 C16         6.0230   -4.0220   -0.3540 c3        1 MOL      0.290425
     50 C17         5.3810   -4.2030   -1.7600 c         1 MOL      0.601045
     51 O10         5.1790   -5.2630   -2.2900 o         1 MOL     -0.538318
     52 C18         6.8890   -5.1690    0.1460 c3        1 MOL     -0.338379
     53 C19         7.3750   -4.9600    1.5090 c         1 MOL      0.743655
     54 N6          6.5370   -5.2600    2.5390 n         1 MOL     -0.878756
     55 O11         8.4390   -4.4720    1.8330 o         1 MOL     -0.543020
     56 H20         7.5970   -2.7600   -0.8990 hn        1 MOL      0.397710
     57 H21         5.2320   -3.8680    0.3870 h1        1 MOL      0.001889
     58 H22         7.7240   -5.3510   -0.5370 hc        1 MOL      0.095052
     59 H23         6.3330   -6.0920    0.0320 hc        1 MOL      0.095052
     60 H24         5.5660   -5.5230    2.4280 hn        1 MOL      0.384430
     61 H25         6.8830   -5.1570    3.4800 hn        1 MOL      0.384430
     62 N7          4.9390   -3.0990   -2.3880 n         1 MOL     -0.361673
     63 C20         4.4160   -3.0930   -3.7180 c3        1 MOL     -0.136893
     64 C21         3.0740   -3.8120   -3.8920 c         1 MOL      0.549599
     65 O12         2.6090   -4.1110   -4.9680 o         1 MOL     -0.551197
     66 H26         4.9500   -2.2360   -1.8750 hn        1 MOL      0.294281
     67 H27         5.1280   -3.4740   -4.4620 h1        1 MOL      0.099936
     68 H28         4.3200   -2.0400   -3.9620 h1        1 MOL      0.099936
     69 N8          2.3660   -3.9460   -2.7860 n         1 MOL     -0.268466
     70 C22         0.9610   -4.4280   -2.5680 c3        1 MOL     -0.023640
     71 C23        -0.0100   -3.4920   -1.9020 c         1 MOL      0.516850
     72 O13         0.2910   -2.4790   -1.2850 o         1 MOL     -0.591636
     73 C24         0.8850   -5.7660   -1.7660 c3        1 MOL      0.240042
     74 C25         1.6470   -6.8750   -2.6170 c3        1 MOL     -0.382911
     75 O14         1.5320   -5.6410   -0.5300 oh        1 MOL     -0.675420
     76 H29         2.6960   -3.4860   -1.9430 hn        1 MOL      0.270690
     77 H30         0.4890   -4.6170   -3.5360 h1        1 MOL      0.082969
     78 H31        -0.1430   -6.1040   -1.6410 h1        1 MOL      0.044718
     79 H32         1.4050   -6.5000   -0.1070 ho        1 MOL      0.455778
     80 H33         1.0590   -7.2820   -3.4500 hc        1 MOL      0.101355
     81 H34         2.6390   -6.5500   -2.9180 hc        1 MOL      0.101355
     82 H35         1.8980   -7.7190   -1.9690 hc        1 MOL      0.101355
     83 N9         -1.2900   -3.7600   -2.0650 n         1 MOL     -0.275504
     84 C26        -2.4570   -2.9390   -1.7180 c3        1 MOL     -0.015466
     85 C27        -3.0990   -3.3060   -0.3900 c         1 MOL      0.435168
     86 O15        -3.4280   -4.4720   -0.2250 o         1 MOL     -0.588980
     87 C28        -3.4560   -2.9770   -2.8840 c3        1 MOL      0.144690
     88 C29        -4.6670   -2.0130   -2.7290 c3        1 MOL      0.131942
     89 C30        -2.7020   -2.7000   -4.1660 c3        1 MOL     -0.289661
     90 C31        -5.5750   -2.1330   -3.9410 c3        1 MOL     -0.183957
     91 H36        -1.5590   -4.5740   -2.5990 hn        1 MOL      0.219289
     92 H37        -2.1070   -1.9050   -1.6260 h1        1 MOL      0.129284
     93 H38        -3.7820   -4.0220   -2.8610 hc        1 MOL     -0.018408
     94 H39        -4.2640   -1.0070   -2.6660 hc        1 MOL     -0.022293
     95 H40        -5.2130   -2.1660   -1.7910 hc        1 MOL     -0.022293
     96 H41        -2.2550   -1.7080   -4.1390 hc        1 MOL      0.063889
     97 H42        -1.8110   -3.2840   -4.3980 hc        1 MOL      0.063889
     98 H43        -3.3850   -2.7480   -5.0190 hc        1 MOL      0.063889
     99 H44        -5.9830   -3.1460   -3.9580 hc        1 MOL      0.037180
    100 H45        -6.4970   -1.5820   -3.7440 hc        1 MOL      0.037180
    101 H46        -5.1200   -1.7970   -4.8730 hc        1 MOL      0.037180
    102 N10        -3.3200   -2.4240    0.5940 n         1 MOL      0.100397
    103 C32        -3.8280   -2.5900    1.8570 c3        1 MOL      0.073589
    104 C33        -5.2890   -2.0810    2.0290 c         1 MOL      0.222762
    105 O16        -6.0380   -2.6100    2.8110 o         1 MOL     -0.493435
    106 C34        -2.7850   -2.1650    2.9040 c3        1 MOL     -0.056992
    107 C35        -1.4760   -2.8780    2.9430 c         1 MOL      0.653869
    108 O17        -0.6040   -2.7950    2.0440 o         1 MOL     -0.693962
    109 O18        -1.2540   -3.6560    3.8630 o         1 MOL     -0.693962
    110 H47        -3.0430   -1.4840    0.3450 hn        1 MOL     -0.405742
    111 H48        -3.8800   -3.6630    2.0400 h1        1 MOL      0.097965
    112 H49        -3.2130   -2.2270    3.8960 hc        1 MOL      0.012022
    113 H50        -2.5510   -1.1020    2.8380 hc        1 MOL      0.012022
    114 N11        -5.6930   -1.1040    1.2010 n         1 MOL     -0.260263
    115 C36        -6.9630   -0.4390    1.2670 c3        1 MOL      0.490801
    116 C37        -6.6910    1.0810    1.1580 c         1 MOL     -0.096238
    117 O19        -7.2250    1.7610    0.2310 o         1 MOL     -0.415280
    118 C38        -7.7750   -0.9080    0.0410 c3        1 MOL     -0.246005
    119 C39        -9.2420   -0.5070   -0.0130 ca        1 MOL      0.156971
    120 C40        -9.9260   -0.5910   -1.2680 ca        1 MOL     -0.185736
    121 C41       -10.0290   -0.2790    1.1490 ca        1 MOL     -0.185736
    122 C42       -11.3150   -0.5120   -1.3460 ca        1 MOL     -0.099620
    123 C43       -11.4170   -0.0160    1.0540 ca        1 MOL     -0.099620
    124 C44       -12.0800   -0.2140   -0.1900 ca        1 MOL     -0.168849
    125 H51        -4.9780   -0.7390    0.5940 hn        1 MOL      0.305195
    126 H52        -7.4740   -0.7490    2.1750 h1        1 MOL     -0.034076
    127 H53        -7.7960   -2.0010    0.1020 hc        1 MOL      0.084844
    128 H54        -7.3180   -0.4710   -0.8390 hc        1 MOL      0.084844
    129 H55        -9.2890   -0.7990   -2.1120 ha        1 MOL      0.119746
    130 H56        -9.6420   -0.3020    2.1620 ha        1 MOL      0.119746
    131 H57       -11.8410   -0.5590   -2.2890 ha        1 MOL      0.102903
    132 H58       -12.0020    0.1820    1.9340 ha        1 MOL      0.102903
    133 H59       -13.1470   -0.0500   -0.1650 ha        1 MOL      0.110289
    134 N12        -5.7920    1.7140    1.9000 n         1 MOL      0.266437
    135 C45        -5.5470    3.1800    1.9350 c3        1 MOL     -0.077454
    136 C46        -4.8540    3.8270    0.7200 c         1 MOL      0.398443
    137 O20        -4.8090    5.0650    0.5820 o         1 MOL     -0.508541
    138 C47        -4.7080    3.4510    3.1880 c3        1 MOL     -0.051763
    139 C48        -4.4780    2.0940    3.8030 c3        1 MOL     -0.189273
    140 C49        -5.1570    1.0430    2.9960 c3        1 MOL     -0.052263
    141 H60        -6.4710    3.7390    1.8270 h1        1 MOL      0.059612
    142 H61        -3.8120    3.9340    2.8200 hc        1 MOL      0.050702
    143 H62        -5.2470    4.1110    3.8750 hc        1 MOL      0.050702
    144 H63        -3.3930    1.9670    3.7860 hc        1 MOL      0.069159
    145 H64        -4.8850    2.1710    4.8170 hc        1 MOL      0.069159
    146 H65        -4.3680    0.4170    2.5700 h1        1 MOL      0.071502
    147 H66        -5.8330    0.5460    3.6840 h1        1 MOL      0.071502
    148 N13        -4.3770    2.9270   -0.1430 n         1 MOL     -0.107697
    149 C50        -3.8390    3.3820   -1.3860 c3        1 MOL     -0.336530
    150 C51        -5.0000    3.7660   -2.2860 c         1 MOL      0.499138
    151 O21        -4.9900    4.7460   -3.0570 o         1 MOL     -0.560667
    152 C52        -3.0590    2.3510   -2.1080 c3        1 MOL      0.242903
    153 C53        -1.9230    1.6490   -1.2750 c3        1 MOL     -0.296633
    154 C54        -2.3970    0.5680   -0.3420 c         1 MOL      0.819005
    155 O22        -1.4610   -0.1050    0.1760 o         1 MOL     -0.644648
    156 O23        -3.5800    0.2850   -0.1360 o         1 MOL     -0.644648
    157 H67        -4.3620    1.9290    0.0260 hn        1 MOL      0.165579
    158 H68        -3.1860    4.2310   -1.1810 h1        1 MOL      0.164646
    159 H69        -2.5990    2.8350   -2.9660 hc        1 MOL     -0.041537
    160 H70        -3.6200    1.5310   -2.5590 hc        1 MOL     -0.041537
    161 H71        -1.4310    2.4380   -0.7130 hc        1 MOL      0.083750
    162 H72        -1.3380    1.0950   -2.0090 hc        1 MOL      0.083750
    163 N14        -6.1420    3.1640   -2.0870 n         1 MOL     -0.107798
    164 C55        -7.3330    3.3000   -2.9780 c3        1 MOL     -0.303654
    165 H73        -7.0120    3.2710   -4.0180 h1        1 MOL      0.109827
    166 H74        -8.0240    2.4800   -2.7880 h1        1 MOL      0.109827
    167 H75        -7.8310    4.2490   -2.7780 h1        1 MOL      0.109827
    168 H76        -6.2610    2.5500   -1.2950 hn        1 MOL      0.145126
    169 Ca1         0.8790   -0.9610    0.9840 Ca        1 MOL      1.761308
    170 O24         1.3450    1.6060   -0.2910 oh        1 MOL     -0.912885
    171 H77         1.2280    2.5520   -0.1830 ho        1 MOL      0.426293
    172 H78         2.1320    1.5270   -0.8340 ho        1 MOL      0.426293
    173 O25         2.6420   -1.0670   -1.1670 oh        1 MOL     -0.912885
    174 H79         3.5340   -0.7600   -1.2950 ho        1 MOL      0.426293
    175 H80         2.1430   -0.7080   -1.8990 ho        1 MOL      0.426293
    176 O26         0.4760    0.9290    2.7620 oh        1 MOL     -0.912885
    177 H81        -0.2370    1.5310    2.5590 ho        1 MOL      0.426293
    178 H82         0.9440    1.3360    3.4790 ho        1 MOL      0.426293
    179 O27         2.7590   -3.2960    0.8620 oh        1 MOL     -0.912885
    180 H83         2.6930   -3.6150    1.7640 ho        1 MOL      0.426293
    181 H84         2.3930   -4.0000    0.3280 ho        1 MOL      0.426293
    182 O28         1.9320   -1.6630    3.6290 oh        1 MOL     -0.912885
    183 H85         1.5300   -2.3090    4.2010 ho        1 MOL      0.426293
    184 H86         2.5090   -1.1460    4.2050 ho        1 MOL      0.426293
@<TRIPOS>BOND
     1    1    2 1   
     2    1    4 1   
     3    1    5 1   
     4    1    6 1   
     5    2    3 2   
     6    2    7 1   
     7    7    8 1   
     8    7   15 1   
     9    8    9 1   
    10    8   11 1   
    11    8   16 1   
    12    9   10 2   
    13    9   19 1   
    14   11   12 1   
    15   11   17 1   
    16   11   18 1   
    17   12   13 1   
    18   12   14 1   
    19   19   20 1   
    20   19   24 1   
    21   20   21 1   
    22   20   23 1   
    23   20   25 1   
    24   21   22 2   
    25   21   29 1   
    26   23   26 1   
    27   23   27 1   
    28   23   28 1   
    29   29   30 1   
    30   29   37 1   
    31   30   31 1   
    32   30   33 1   
    33   30   38 1   
    34   31   32 2   
    35   31   41 1   
    36   33   34 1   
    37   33   39 1   
    38   33   40 1   
    39   34   35 1   
    40   34   36 1   
    41   41   42 1   
    42   41   45 1   
    43   42   43 1   
    44   42   46 1   
    45   42   47 1   
    46   43   44 2   
    47   43   48 1   
    48   48   49 1   
    49   48   56 1   
    50   49   50 1   
    51   49   52 1   
    52   49   57 1   
    53   50   51 2   
    54   50   62 1   
    55   52   53 1   
    56   52   58 1   
    57   52   59 1   
    58   53   54 1   
    59   53   55 2   
    60   54   60 1   
    61   54   61 1   
    62   62   63 1   
    63   62   66 1   
    64   63   64 1   
    65   63   67 1   
    66   63   68 1   
    67   64   65 2   
    68   64   69 1   
    69   69   70 1   
    70   69   76 1   
    71   70   71 1   
    72   70   73 1   
    73   70   77 1   
    74   71   72 2   
    75   71   83 1   
    76   73   74 1   
    77   73   75 1   
    78   73   78 1   
    79   74   80 1   
    80   74   81 1   
    81   74   82 1   
    82   75   79 1   
    83   83   84 1   
    84   83   91 1   
    85   84   85 1   
    86   84   87 1   
    87   84   92 1   
    88   85   86 2   
    89   85  102 1   
    90   87   88 1   
    91   87   89 1   
    92   87   93 1   
    93   88   90 1   
    94   88   94 1   
    95   88   95 1   
    96   89   96 1   
    97   89   97 1   
    98   89   98 1   
    99   90   99 1   
   100   90  100 1   
   101   90  101 1   
   102  102  103 1   
   103  102  110 1   
   104  103  104 1   
   105  103  106 1   
   106  103  111 1   
   107  104  105 2   
   108  104  114 1   
   109  106  107 1   
   110  106  112 1   
   111  106  113 1   
   112  107  108 1   
   113  107  109 1   
   114  114  115 1   
   115  114  125 1   
   116  115  116 1   
   117  115  118 1   
   118  115  126 1   
   119  116  117 2   
   120  116  134 1   
   121  118  119 1   
   122  118  127 1   
   123  118  128 1   
   124  119  120 ar  
   125  119  121 ar  
   126  120  122 ar  
   127  120  129 1   
   128  121  123 ar  
   129  121  130 1   
   130  122  124 ar  
   131  122  131 1   
   132  123  124 ar  
   133  123  132 1   
   134  124  133 1   
   135  134  135 1   
   136  134  140 1   
   137  135  136 1   
   138  135  138 1   
   139  135  141 1   
   140  136  137 2   
   141  136  148 1   
   142  138  139 1   
   143  138  142 1   
   144  138  143 1   
   145  139  140 1   
   146  139  144 1   
   147  139  145 1   
   148  140  146 1   
   149  140  147 1   
   150  148  149 1   
   151  148  157 1   
   152  149  150 1   
   153  149  152 1   
   154  149  158 1   
   155  150  151 2   
   156  150  163 1   
   157  152  153 1   
   158  152  159 1   
   159  152  160 1   
   160  153  154 1   
   161  153  161 1   
   162  153  162 1   
   163  154  155 1   
   164  154  156 1   
   165  163  164 1   
   166  163  168 1   
   167  164  165 1   
   168  164  166 1   
   169  164  167 1   
   170  170  171 1   
   171  170  172 1   
   172  173  174 1   
   173  173  175 1   
   174  176  177 1   
   175  176  178 1   
   176  179  180 1   
   177  179  181 1   
   178  182  183 1   
   179  182  184 1   
@<TRIPOS>SUBSTRUCTURE
     1 MOL         1 TEMP              0 ****  ****    0 ROOT
