@<TRIPOS>MOLECULE
MOL
  195   189     1     0     0
SMALL
resp


@<TRIPOS>ATOM
      1 C1          4.7260   -0.1930    6.6270 c3        1 MOL     -0.264315
      2 C2          4.5670    0.0240    5.0680 c         1 MOL      0.792273
      3 O1          3.9910    1.0470    4.6990 o         1 MOL     -0.603245
      4 H1          4.1300   -1.0520    6.9370 hc        1 MOL      0.058781
      5 H2          5.7740   -0.3730    6.8640 hc        1 MOL      0.058781
      6 H3          4.3810    0.6970    7.1550 hc        1 MOL      0.058781
      7 N1          5.0790   -0.9490    4.2790 n         1 MOL     -0.710058
      8 C3          4.9850   -0.8290    2.8140 c3        1 MOL      0.175669
      9 C4          3.5150   -0.9690    2.2130 c         1 MOL      0.372317
     10 O2          3.4340   -0.6490    1.0530 o         1 MOL     -0.350214
     11 C5          6.1040   -1.6160    2.1290 c3        1 MOL     -0.231728
     12 C6          6.0800   -3.1100    2.5520 c         1 MOL      0.654560
     13 O3          5.8580   -4.0000    1.7060 o         1 MOL     -0.692618
     14 O4          6.2640   -3.3850    3.8090 o         1 MOL     -0.692618
     15 H4          5.5200   -1.7900    4.6000 hn        1 MOL      0.361958
     16 H5          5.2260    0.2290    2.6730 h1        1 MOL      0.081238
     17 H6          7.0580   -1.1740    2.4320 hc        1 MOL      0.075879
     18 H7          6.0370   -1.5170    1.0520 hc        1 MOL      0.075879
     19 N2          2.4250   -1.3170    2.9630 n         1 MOL     -0.346453
     20 C7          1.0530   -1.3470    2.4420 c3        1 MOL      0.223734
     21 C8          0.3050   -0.0670    2.8970 c         1 MOL      0.501680
     22 O5          0.5740    0.5100    3.9630 o         1 MOL     -0.548337
     23 C9          0.3610   -2.6740    2.8710 c3        1 MOL     -0.460522
     24 C10         0.8930   -3.9110    2.0090 c3        1 MOL     -0.164917
     25 C11         2.3820   -4.2960    2.0430 c3        1 MOL      0.105851
     26 C12         2.6530   -5.6130    1.3470 c3        1 MOL      0.065924
     27 N3          4.0610   -6.1210    1.6700 n4        1 MOL     -0.258281
     28 H8          2.5910   -1.3740    3.9560 hn        1 MOL      0.237277
     29 H9          1.1110   -1.3100    1.3600 h1        1 MOL      0.063108
     30 H10        -0.7150   -2.6180    2.7370 hc        1 MOL      0.175971
     31 H11         0.5900   -2.8040    3.9260 hc        1 MOL      0.175971
     32 H12         0.5950   -3.8030    0.9600 hc        1 MOL      0.101971
     33 H13         0.3450   -4.7850    2.3570 hc        1 MOL      0.101971
     34 H14         2.7660   -4.5480    3.0340 hc        1 MOL      0.005214
     35 H15         3.0120   -3.4910    1.6630 hc        1 MOL      0.005214
     36 H16         2.6580   -5.3260    0.2980 hx        1 MOL      0.008639
     37 H17         1.8730   -6.3370    1.5790 hx        1 MOL      0.008639
     38 H18         4.3990   -6.9410    1.1930 hn        1 MOL      0.279607
     39 H19         4.6930   -5.3770    1.3920 hn        1 MOL      0.279607
     40 H20         4.2110   -6.3190    2.6530 hn        1 MOL      0.279607
     41 N4         -0.6190    0.5400    2.2190 n         1 MOL     -0.412008
     42 C13        -1.2950    0.3100    0.9700 c3        1 MOL     -0.073637
     43 C14        -1.6320   -1.1960    0.5660 c         1 MOL      0.019188
     44 O6         -0.9560   -1.8800   -0.1970 o         1 MOL     -0.373368
     45 C15        -0.5230    0.9610   -0.1490 c3        1 MOL     -0.007616
     46 C16        -0.4340    2.4760   -0.0420 c         1 MOL      0.962677
     47 O7         -1.2110    3.0440    0.7390 o         1 MOL     -0.904936
     48 O8          0.4000    3.1820   -0.6550 o         1 MOL     -0.904936
     49 H21        -0.8650    1.4170    2.6670 hn        1 MOL      0.321209
     50 H22        -2.2490    0.8190    1.1360 h1        1 MOL      0.163015
     51 H23        -1.0030    0.8320   -1.1160 hc        1 MOL      0.040935
     52 H24         0.4870    0.5780   -0.2850 hc        1 MOL      0.040935
     53 N5         -2.7410   -1.7650    1.1440 n         1 MOL     -0.019130
     54 C17        -3.7660   -1.1600    2.0940 c3        1 MOL     -0.149376
     55 C18        -4.6920   -2.1110    2.9060 c         1 MOL      0.483787
     56 O9         -4.2900   -3.2420    3.1250 o         1 MOL     -0.530477
     57 H25        -2.9300   -2.7020    0.7830 hn        1 MOL      0.176362
     58 H26        -4.4260   -0.5190    1.4890 h1        1 MOL      0.082362
     59 H27        -3.3360   -0.3670    2.7160 h1        1 MOL      0.082362
     60 N6         -5.7960   -1.6440    3.4940 n         1 MOL     -0.301121
     61 C19        -6.4150   -0.3500    3.4420 c3        1 MOL      0.005539
     62 C20        -7.2260   -0.1870    2.1750 c         1 MOL      0.602993
     63 O10        -7.4380   -1.1750    1.5510 o         1 MOL     -0.480561
     64 C21        -7.2520   -0.0880    4.7690 c3        1 MOL     -0.151502
     65 C22        -8.3200   -1.1270    5.1610 c         1 MOL      0.689850
     66 O11        -8.0680   -2.3790    5.2760 o         1 MOL     -0.642225
     67 O12        -9.4840   -0.6990    5.3580 o         1 MOL     -0.642225
     68 H28        -6.3340   -2.3240    4.0200 hn        1 MOL      0.238715
     69 H29        -5.7060    0.4720    3.4160 h1        1 MOL      0.006892
     70 H30        -7.7450    0.8890    4.7180 hc        1 MOL      0.022981
     71 H31        -6.5110   -0.1000    5.5620 hc        1 MOL      0.022981
     72 N7         -7.6590    1.0490    1.8060 n         1 MOL     -0.414991
     73 C23        -8.5740    1.1980    0.6750 c3        1 MOL     -0.235112
     74 C24        -7.9890    0.9980   -0.7510 c         1 MOL      0.422366
     75 O13        -8.7560    0.6710   -1.6460 o         1 MOL     -0.510251
     76 H32        -7.3740    1.8190    2.3970 hn        1 MOL      0.276185
     77 H33        -8.8370    2.2520    0.6400 h1        1 MOL      0.154562
     78 H34        -9.4980    0.6360    0.7590 h1        1 MOL      0.154562
     79 N8         -6.6750    1.1540   -0.9390 n         1 MOL     -0.182788
     80 C25        -5.9190    1.0050   -2.2070 c3        1 MOL     -0.074539
     81 C26        -4.8170   -0.0080   -1.8570 c         1 MOL      0.375751
     82 O14        -3.7840    0.4100   -1.2480 o         1 MOL     -0.521610
     83 C27        -5.3740    2.3880   -2.7180 c3        1 MOL      0.348504
     84 C28        -4.7870    3.4140   -1.7520 c3        1 MOL     -0.462580
     85 O15        -6.4590    2.9510   -3.4080 oh        1 MOL     -0.632367
     86 H35        -6.1260    1.5980   -0.2240 hn        1 MOL      0.166489
     87 H36        -6.4680    0.5450   -3.0270 h1        1 MOL      0.111226
     88 H37        -4.5540    2.1690   -3.4030 h1        1 MOL      0.071370
     89 H38        -7.0400    3.3090   -2.7280 ho        1 MOL      0.401710
     90 H39        -5.5120    3.5050   -0.9370 hc        1 MOL      0.117533
     91 H40        -3.7940    3.1170   -1.4220 hc        1 MOL      0.117533
     92 H41        -4.5800    4.3560   -2.2630 hc        1 MOL      0.117533
     93 N9         -4.9240   -1.2440   -2.2990 n         1 MOL     -0.276006
     94 C29        -3.9360   -2.2840   -2.0540 c3        1 MOL     -0.274925
     95 C30        -2.7010   -2.2240   -2.9510 c         1 MOL      0.390697
     96 O16        -2.1840   -3.2220   -3.4720 o         1 MOL     -0.489336
     97 C31        -4.6870   -3.6710   -2.0140 c3        1 MOL      0.118983
     98 C32        -5.6650   -3.8580   -3.2450 c3        1 MOL      0.147466
     99 C33        -5.4780   -3.8280   -0.7410 c3        1 MOL     -0.336237
    100 C34        -6.1300   -5.3250   -3.4790 c3        1 MOL     -0.274541
    101 H42        -5.7090   -1.5110   -2.8750 hn        1 MOL      0.256369
    102 H43        -3.4730   -2.2300   -1.0730 h1        1 MOL      0.292744
    103 H44        -3.9590   -4.4830   -2.0870 hc        1 MOL      0.038579
    104 H45        -4.9160   -3.6180   -3.9990 hc        1 MOL     -0.004222
    105 H46        -6.4990   -3.1560   -3.3030 hc        1 MOL     -0.004222
    106 H47        -4.9560   -3.9120    0.2130 hc        1 MOL      0.090300
    107 H48        -6.1030   -2.9640   -0.5300 hc        1 MOL      0.090300
    108 H49        -6.2130   -4.6210   -0.8590 hc        1 MOL      0.090300
    109 H50        -7.0330   -5.6260   -2.9410 hc        1 MOL      0.070315
    110 H51        -6.3600   -5.2720   -4.5460 hc        1 MOL      0.070315
    111 H52        -5.3090   -5.9900   -3.2070 hc        1 MOL      0.070315
    112 N10        -2.1900   -0.9960   -3.1870 n         1 MOL     -0.032778
    113 C35        -1.1060   -0.7570   -4.2000 c3        1 MOL     -0.001260
    114 C36         0.3550   -1.0560   -3.7810 c         1 MOL      0.159041
    115 O17         1.2020   -1.4660   -4.6040 o         1 MOL     -0.542105
    116 C37        -1.1240    0.6210   -4.8940 c3        1 MOL      0.290348
    117 C38        -1.0830    1.8220   -4.0180 c3        1 MOL     -0.377467
    118 O18        -2.2550    0.7970   -5.6200 oh        1 MOL     -0.684927
    119 H53        -2.6970   -0.2190   -2.7950 hn        1 MOL      0.105901
    120 H54        -1.2020   -1.4430   -5.0390 h1        1 MOL      0.133132
    121 H55        -0.3470    0.7180   -5.6420 h1        1 MOL      0.066787
    122 H56        -2.3440    1.7050   -5.9040 ho        1 MOL      0.423435
    123 H57        -1.0040    2.6270   -4.7460 hc        1 MOL      0.106577
    124 H58        -1.9470    2.0130   -3.3890 hc        1 MOL      0.106577
    125 H59        -0.1820    1.7210   -3.4110 hc        1 MOL      0.106577
    126 N11         0.5840   -1.1680   -2.4730 n         1 MOL      0.226609
    127 C39         1.9500   -1.4230   -1.8860 c3        1 MOL      0.057445
    128 C40         3.0020   -0.3720   -2.2420 c         1 MOL      0.321278
    129 O19         2.6980    0.6020   -2.9370 o         1 MOL     -0.519089
    130 C41         2.4820   -2.8250   -2.2280 c3        1 MOL      0.510959
    131 C42         1.4880   -3.9810   -2.0620 c3        1 MOL     -0.705969
    132 O20         3.5250   -3.0680   -1.2810 oh        1 MOL     -0.565415
    133 H60        -0.2330   -1.0190   -1.8980 hn        1 MOL     -0.172350
    134 H61         1.9030   -1.4770   -0.7950 h1        1 MOL      0.071036
    135 H62         2.8770   -2.8960   -3.2370 h1        1 MOL     -0.071356
    136 H63         4.0280   -3.7550   -1.7150 ho        1 MOL      0.344096
    137 H64         0.7190   -3.9400   -2.8280 hc        1 MOL      0.171424
    138 H65         2.0340   -4.9220   -2.1840 hc        1 MOL      0.171424
    139 H66         0.9540   -3.9180   -1.1090 hc        1 MOL      0.171424
    140 N12         4.1940   -0.4530   -1.6870 n         1 MOL     -0.120874
    141 C43         5.3850    0.3360   -2.1170 c3        1 MOL     -0.114660
    142 C44         5.8710    1.3900   -1.1280 c         1 MOL      0.760231
    143 O21         6.9530    1.8500   -1.3850 o         1 MOL     -0.611340
    144 C45         6.4720   -0.6260   -2.5460 c3        1 MOL      0.201560
    145 C46         6.0350   -1.5470   -3.6860 c3        1 MOL     -0.451127
    146 C47         7.1720   -2.5650   -3.8920 c3        1 MOL     -0.002849
    147 C48         6.7500   -3.5730   -4.9300 c3        1 MOL      0.094419
    148 N13         7.7990   -4.7070   -5.0280 n4        1 MOL     -0.302489
    149 H67         4.3060   -1.1210   -0.9360 hn        1 MOL      0.103937
    150 H68         5.1580    0.8500   -3.0440 h1        1 MOL      0.092718
    151 H69         6.7920   -1.2230   -1.6970 hc        1 MOL     -0.005173
    152 H70         7.3760   -0.1050   -2.8430 hc        1 MOL     -0.005173
    153 H71         5.9470   -0.9780   -4.6150 hc        1 MOL      0.162663
    154 H72         5.1070   -2.0640   -3.4450 hc        1 MOL      0.162663
    155 H73         7.3480   -3.1350   -2.9830 hc        1 MOL      0.039451
    156 H74         8.1270   -2.1110   -4.1460 hc        1 MOL      0.039451
    157 H75         6.5970   -3.2410   -5.9600 hx        1 MOL      0.065352
    158 H76         5.8020   -4.0160   -4.6160 hx        1 MOL      0.065352
    159 H77         7.9090   -4.9340   -4.0590 hn        1 MOL      0.270627
    160 H78         7.3500   -5.4730   -5.5180 hn        1 MOL      0.270627
    161 H79         8.7360   -4.4810   -5.3460 hn        1 MOL      0.270627
    162 N14         5.0750    1.7900   -0.1080 n         1 MOL     -0.656654
    163 C49         5.2810    2.9040    0.7710 c3        1 MOL     -0.047674
    164 C50         6.6600    2.8420    1.5980 c         1 MOL      0.531191
    165 O22         6.8760    1.9200    2.4050 o         1 MOL     -0.503410
    166 C51         4.0510    3.1020    1.6800 c3        1 MOL      0.340027
    167 C52         2.7690    3.4310    0.8940 c3        1 MOL     -0.492275
    168 C53         2.4400    4.9330    1.0140 c         1 MOL      1.035191
    169 O23         3.4090    5.6930    0.7630 o         1 MOL     -0.811512
    170 O24         1.3310    5.3840    1.4560 o         1 MOL     -0.811512
    171 H80         4.2600    1.2290    0.0970 hn        1 MOL      0.266068
    172 H81         5.3820    3.7290    0.0650 h1        1 MOL      0.093650
    173 H82         4.2390    3.8820    2.4220 hc        1 MOL     -0.054094
    174 H83         3.8190    2.1190    2.1090 hc        1 MOL     -0.054094
    175 H84         1.9720    2.8220    1.3120 hc        1 MOL      0.136853
    176 H85         2.8690    3.0960   -0.1390 hc        1 MOL      0.136853
    177 N15         7.5090    3.8690    1.4990 n         1 MOL     -0.349581
    178 C54         8.7600    3.9490    2.2500 c3        1 MOL     -0.213758
    179 H86         9.2870    4.8640    1.9790 h1        1 MOL      0.108973
    180 H87         8.5430    3.9580    3.3180 h1        1 MOL      0.108973
    181 H88         9.3830    3.0880    2.0120 h1        1 MOL      0.108973
    182 H89         7.0710    4.6740    1.0530 hn        1 MOL      0.292381
    183 Ca1        -0.5490    5.5130   -0.3530 Ca        1 MOL      1.670561
    184 O25         1.0970    5.6930   -2.3620 oh        1 MOL     -0.809737
    185 H90         1.3750    6.4680   -2.8470 ho        1 MOL      0.405716
    186 H91         1.2980    4.9580   -2.9490 ho        1 MOL      0.405716
    187 O26        -3.2670    4.6570    0.4060 oh        1 MOL     -0.809737
    188 H92        -3.6420    4.9490    1.2430 ho        1 MOL      0.405716
    189 H93        -3.0210    3.7450    0.5480 ho        1 MOL      0.405716
    190 O27        -1.9750    5.7320   -2.6880 oh        1 MOL     -0.809737
    191 H94        -2.8540    6.0210   -2.8970 ho        1 MOL      0.405716
    192 H95        -1.4150    6.1740   -3.3330 ho        1 MOL      0.405716
    193 O28         0.7620    7.8610   -0.4040 oh        1 MOL     -0.809737
    194 H96         1.4740    8.4590   -0.2030 ho        1 MOL      0.405716
    195 H97        -0.0060    8.4300   -0.4920 ho        1 MOL      0.405716
@<TRIPOS>BOND
     1    1    2 1   
     2    1    4 1   
     3    1    5 1   
     4    1    6 1   
     5    2    3 2   
     6    2    7 1   
     7    7    8 1   
     8    7   15 1   
     9    8    9 1   
    10    8   11 1   
    11    8   16 1   
    12    9   10 2   
    13    9   19 1   
    14   11   12 1   
    15   11   17 1   
    16   11   18 1   
    17   12   13 1   
    18   12   14 1   
    19   19   20 1   
    20   19   28 1   
    21   20   21 1   
    22   20   23 1   
    23   20   29 1   
    24   21   22 2   
    25   21   41 1   
    26   23   24 1   
    27   23   30 1   
    28   23   31 1   
    29   24   25 1   
    30   24   32 1   
    31   24   33 1   
    32   25   26 1   
    33   25   34 1   
    34   25   35 1   
    35   26   27 1   
    36   26   36 1   
    37   26   37 1   
    38   27   38 1   
    39   27   39 1   
    40   27   40 1   
    41   41   42 1   
    42   41   49 1   
    43   42   43 1   
    44   42   45 1   
    45   42   50 1   
    46   43   44 2   
    47   43   53 1   
    48   45   46 1   
    49   45   51 1   
    50   45   52 1   
    51   46   47 1   
    52   46   48 1   
    53   53   54 1   
    54   53   57 1   
    55   54   55 1   
    56   54   58 1   
    57   54   59 1   
    58   55   56 2   
    59   55   60 1   
    60   60   61 1   
    61   60   68 1   
    62   61   62 1   
    63   61   64 1   
    64   61   69 1   
    65   62   63 2   
    66   62   72 1   
    67   64   65 1   
    68   64   70 1   
    69   64   71 1   
    70   65   66 1   
    71   65   67 1   
    72   72   73 1   
    73   72   76 1   
    74   73   74 1   
    75   73   77 1   
    76   73   78 1   
    77   74   75 2   
    78   74   79 1   
    79   79   80 1   
    80   79   86 1   
    81   80   81 1   
    82   80   83 1   
    83   80   87 1   
    84   81   82 2   
    85   81   93 1   
    86   83   84 1   
    87   83   85 1   
    88   83   88 1   
    89   84   90 1   
    90   84   91 1   
    91   84   92 1   
    92   85   89 1   
    93   93   94 1   
    94   93  101 1   
    95   94   95 1   
    96   94   97 1   
    97   94  102 1   
    98   95   96 2   
    99   95  112 1   
   100   97   98 1   
   101   97   99 1   
   102   97  103 1   
   103   98  100 1   
   104   98  104 1   
   105   98  105 1   
   106   99  106 1   
   107   99  107 1   
   108   99  108 1   
   109  100  109 1   
   110  100  110 1   
   111  100  111 1   
   112  112  113 1   
   113  112  119 1   
   114  113  114 1   
   115  113  116 1   
   116  113  120 1   
   117  114  115 2   
   118  114  126 1   
   119  116  117 1   
   120  116  118 1   
   121  116  121 1   
   122  117  123 1   
   123  117  124 1   
   124  117  125 1   
   125  118  122 1   
   126  126  127 1   
   127  126  133 1   
   128  127  128 1   
   129  127  130 1   
   130  127  134 1   
   131  128  129 2   
   132  128  140 1   
   133  130  131 1   
   134  130  132 1   
   135  130  135 1   
   136  131  137 1   
   137  131  138 1   
   138  131  139 1   
   139  132  136 1   
   140  140  141 1   
   141  140  149 1   
   142  141  142 1   
   143  141  144 1   
   144  141  150 1   
   145  142  143 2   
   146  142  162 1   
   147  144  145 1   
   148  144  151 1   
   149  144  152 1   
   150  145  146 1   
   151  145  153 1   
   152  145  154 1   
   153  146  147 1   
   154  146  155 1   
   155  146  156 1   
   156  147  148 1   
   157  147  157 1   
   158  147  158 1   
   159  148  159 1   
   160  148  160 1   
   161  148  161 1   
   162  162  163 1   
   163  162  171 1   
   164  163  164 1   
   165  163  166 1   
   166  163  172 1   
   167  164  165 2   
   168  164  177 1   
   169  166  167 1   
   170  166  173 1   
   171  166  174 1   
   172  167  168 1   
   173  167  175 1   
   174  167  176 1   
   175  168  169 1   
   176  168  170 1   
   177  177  178 1   
   178  177  182 1   
   179  178  179 1   
   180  178  180 1   
   181  178  181 1   
   182  184  185 1   
   183  184  186 1   
   184  187  188 1   
   185  187  189 1   
   186  190  191 1   
   187  190  192 1   
   188  193  194 1   
   189  193  195 1   
@<TRIPOS>SUBSTRUCTURE
     1 MOL         1 TEMP              0 ****  ****    0 ROOT
