@<TRIPOS>MOLECULE
MOL
  175   173     1     0     0
SMALL
resp


@<TRIPOS>ATOM
      1 C1         -6.9030    7.6080    2.5750 c3        1 MOL     -0.374036
      2 C2         -7.4080    6.9720    1.3000 c         1 MOL      0.663954
      3 O1         -7.2220    7.4420    0.1680 o         1 MOL     -0.588878
      4 H1         -7.7170    7.6650    3.2980 hc        1 MOL      0.091517
      5 H2         -6.0930    7.0060    2.9860 hc        1 MOL      0.091517
      6 H3         -6.5390    8.6130    2.3610 hc        1 MOL      0.091517
      7 N1         -8.2390    5.9370    1.3620 n         1 MOL     -0.442274
      8 C3         -8.8320    5.1430    0.2260 c3        1 MOL      0.042442
      9 C4         -7.8200    4.5460   -0.7470 c         1 MOL      0.556196
     10 O2         -8.1980    4.3550   -1.9310 o         1 MOL     -0.537958
     11 C5         -9.6760    4.0410    0.8490 c3        1 MOL     -0.249095
     12 C6        -10.6280    3.4710   -0.1660 c         1 MOL      0.765835
     13 O3        -11.5530    4.1870   -0.5450 o         1 MOL     -0.736640
     14 O4        -10.5430    2.2800   -0.5390 o         1 MOL     -0.736640
     15 H4         -8.4050    5.5330    2.2710 hn        1 MOL      0.248134
     16 H5         -9.4630    5.8160   -0.3530 h1        1 MOL      0.089252
     17 H6        -10.2320    4.4670    1.6830 hc        1 MOL      0.029406
     18 H7         -9.0720    3.2310    1.2440 hc        1 MOL      0.029406
     19 N2         -6.6400    4.0700   -0.3250 n         1 MOL     -0.434694
     20 C7         -5.6520    3.4270   -1.0950 c3        1 MOL      0.226276
     21 C8         -4.8830    2.5230   -0.0960 c         1 MOL      0.507843
     22 O5         -4.4010    3.0400    0.9550 o         1 MOL     -0.534266
     23 C9         -4.7500    4.4770   -1.8120 c3        1 MOL     -0.276903
     24 H8         -6.2720    4.3720    0.5730 hn        1 MOL      0.222005
     25 H9         -6.1480    2.8090   -1.8430 h1        1 MOL      0.051154
     26 H10        -4.1950    5.1200   -1.1240 hc        1 MOL      0.077463
     27 H11        -4.0670    3.9010   -2.4270 hc        1 MOL      0.077463
     28 H12        -5.2690    5.2010   -2.4390 hc        1 MOL      0.077463
     29 N3         -4.7190    1.1620   -0.3560 n         1 MOL     -0.480208
     30 C10        -5.1530    0.3780   -1.4650 c3        1 MOL      0.028699
     31 C11        -5.4490   -1.0600   -0.9070 c         1 MOL      0.509452
     32 O6         -4.8050   -1.4420    0.0500 o         1 MOL     -0.517003
     33 C12        -4.0790    0.3120   -2.4890 c3        1 MOL     -0.280743
     34 C13        -2.7450   -0.2410   -1.8820 c         1 MOL      0.820727
     35 O7         -2.0350    0.4610   -1.1460 o         1 MOL     -0.749918
     36 O8         -2.4520   -1.4310   -2.0500 o         1 MOL     -0.749918
     37 H13        -4.0000    0.7280    0.2070 hn        1 MOL      0.297481
     38 H14        -6.1070    0.7040   -1.8900 h1        1 MOL      0.085947
     39 H15        -3.8030    1.2750   -2.9090 hc        1 MOL      0.052377
     40 H16        -4.4220   -0.4420   -3.2090 hc        1 MOL      0.052377
     41 N4         -6.4220   -1.8140   -1.4010 n         1 MOL     -0.376210
     42 C14        -6.8590   -3.1470   -0.9760 c3        1 MOL      0.017786
     43 C15        -6.5720   -4.2400   -1.9970 c         1 MOL      0.578388
     44 O9         -7.4500   -4.5790   -2.7190 o         1 MOL     -0.562179
     45 H17        -6.9440   -1.4350   -2.1790 hn        1 MOL      0.291440
     46 H18        -7.9310   -3.0540   -0.8050 h1        1 MOL      0.068142
     47 H19        -6.3020   -3.4210   -0.0760 h1        1 MOL      0.068142
     48 N5         -5.3820   -4.8600   -2.1280 n         1 MOL     -0.518100
     49 C16        -4.1860   -4.5940   -1.3560 c3        1 MOL      0.071637
     50 C17        -4.2250   -5.2970    0.0800 c         1 MOL      0.451556
     51 O10        -4.9590   -6.2370    0.2820 o         1 MOL     -0.545512
     52 C18        -3.0690   -5.0690   -2.2500 c3        1 MOL     -0.030289
     53 C19        -1.6740   -4.6820   -1.7070 c         1 MOL      0.394047
     54 N6         -0.6270   -5.2580   -2.1290 n         1 MOL     -0.534840
     55 O11        -1.5100   -3.8150   -0.8470 o         1 MOL     -0.441664
     56 H20        -5.2440   -5.4560   -2.9270 hn        1 MOL      0.303582
     57 H21        -4.1560   -3.5170   -1.1800 h1        1 MOL      0.073589
     58 H22        -3.1650   -4.6520   -3.2510 hc        1 MOL      0.039710
     59 H23        -3.0750   -6.1340   -2.4770 hc        1 MOL      0.039710
     60 H24        -0.6730   -5.9980   -2.8240 hn        1 MOL      0.304235
     61 H25         0.2520   -4.8920   -1.8050 hn        1 MOL      0.304235
     62 N7         -3.4300   -4.7820    1.0100 n         1 MOL     -0.095985
     63 C20        -3.2470   -5.2480    2.3810 c3        1 MOL     -0.197474
     64 C21        -1.8060   -5.4560    2.8440 c         1 MOL      0.578147
     65 O12        -1.6270   -5.8740    3.9520 o         1 MOL     -0.581288
     66 H26        -2.9470   -3.9660    0.6930 hn        1 MOL      0.107226
     67 H27        -3.6400   -6.2670    2.3930 h1        1 MOL      0.098303
     68 H28        -3.8070   -4.6230    3.0850 h1        1 MOL      0.098303
     69 N8         -0.8440   -5.2340    1.9440 n         1 MOL     -0.213708
     70 C22         0.6190   -5.2370    2.2320 c3        1 MOL      0.089320
     71 C23         1.2190   -3.8450    2.1920 c         1 MOL      0.345845
     72 O13         0.5450   -2.9750    1.5900 o         1 MOL     -0.543245
     73 C24         1.4270   -6.1770    1.3310 c3        1 MOL      0.277427
     74 C25         1.2120   -7.6480    1.7380 c3        1 MOL     -0.514305
     75 O14         0.9610   -6.1140    0.0050 oh        1 MOL     -0.562412
     76 H29        -1.1350   -5.0460    0.9940 hn        1 MOL      0.086843
     77 H30         0.7820   -5.6110    3.2450 h1        1 MOL      0.037659
     78 H31         2.4920   -5.9590    1.2670 h1        1 MOL      0.039859
     79 H32         1.3940   -5.3410   -0.3700 ho        1 MOL      0.428084
     80 H33         1.4060   -7.7730    2.8010 hc        1 MOL      0.131868
     81 H34         0.1910   -7.9560    1.5200 hc        1 MOL      0.131868
     82 H35         1.8290   -8.2750    1.0890 hc        1 MOL      0.131868
     83 N9          2.4230   -3.6340    2.6540 n         1 MOL     -0.321731
     84 C26         3.3150   -2.4800    2.3950 c3        1 MOL      0.200052
     85 C27         4.1560   -2.8350    1.1050 c         1 MOL      0.123764
     86 O15         4.7630   -3.8930    1.1030 o         1 MOL     -0.507247
     87 C28         4.1620   -2.2220    3.6560 c3        1 MOL      0.163207
     88 C29         5.2230   -1.1130    3.5250 c3        1 MOL      0.189910
     89 C30         3.2520   -1.9250    4.8350 c3        1 MOL     -0.523874
     90 C31         4.7750    0.2710    3.5370 c3        1 MOL     -0.206326
     91 H36         2.8750   -4.4680    2.9920 hn        1 MOL      0.231312
     92 H37         2.6340   -1.6510    2.1660 h1        1 MOL      0.081847
     93 H38         4.7390   -3.1180    3.8750 hc        1 MOL     -0.028510
     94 H39         5.7720   -1.3050    2.6080 hc        1 MOL     -0.061690
     95 H40         5.9760   -1.2530    4.3090 hc        1 MOL     -0.061690
     96 H41         2.7500   -2.8470    5.1250 hc        1 MOL      0.132832
     97 H42         3.8630   -1.4350    5.6010 hc        1 MOL      0.132832
     98 H43         2.5350   -1.1560    4.5420 hc        1 MOL      0.132832
     99 H44         4.0650    0.4400    4.3580 hc        1 MOL      0.033118
    100 H45         5.6400    0.9270    3.5090 hc        1 MOL      0.033118
    101 H46         4.2320    0.3760    2.5960 hc        1 MOL      0.033118
    102 N10         3.8710   -2.0830   -0.0050 n         1 MOL      0.137546
    103 C32         4.5550   -2.4370   -1.2830 c3        1 MOL      0.017443
    104 C33         5.6400   -1.3760   -1.6530 c         1 MOL      0.549841
    105 O16         6.2280   -1.4520   -2.7360 o         1 MOL     -0.545541
    106 C34         3.4160   -2.6640   -2.3010 c3        1 MOL     -0.130933
    107 C35         2.3230   -3.5210   -1.8030 c         1 MOL      0.771101
    108 O17         2.2240   -4.7300   -2.0620 o         1 MOL     -0.723079
    109 O18         1.4120   -3.0450   -1.1440 o         1 MOL     -0.723079
    110 H47         3.1760   -1.3580    0.0070 hn        1 MOL      0.047507
    111 H48         5.0470   -3.4010   -1.1810 h1        1 MOL      0.070773
    112 H49         3.8740   -3.0640   -3.2140 hc        1 MOL      0.007986
    113 H50         3.0590   -1.6520   -2.4750 hc        1 MOL      0.007986
    114 N11         5.8690   -0.4170   -0.7610 n         1 MOL     -0.665632
    115 C36         6.6200    0.7840   -1.1230 c3        1 MOL      0.350667
    116 C37         6.1350    2.0400   -0.3190 c         1 MOL      0.372319
    117 O19         5.9070    2.0750    0.8760 o         1 MOL     -0.481956
    118 C38         8.1110    0.4610   -0.8850 c3        1 MOL     -0.160275
    119 C39         9.0600    1.4300   -1.6200 ca        1 MOL      0.065456
    120 C40         9.5650    2.5530   -0.9360 ca        1 MOL     -0.146427
    121 C41         9.3560    1.2630   -2.9610 ca        1 MOL     -0.146427
    122 C42        10.4770    3.4510   -1.6180 ca        1 MOL     -0.122664
    123 C43        10.0780    2.2220   -3.7080 ca        1 MOL     -0.122664
    124 C44        10.6940    3.2470   -3.0180 ca        1 MOL     -0.127356
    125 H51         5.4030   -0.3920    0.1290 hn        1 MOL      0.364469
    126 H52         6.3820    0.8650   -2.1910 h1        1 MOL      0.016778
    127 H53         8.3060   -0.5220   -1.3080 hc        1 MOL      0.074203
    128 H54         8.3750    0.3700    0.1670 hc        1 MOL      0.074203
    129 H55         9.2710    2.6690    0.1010 ha        1 MOL      0.116192
    130 H56         8.9740    0.3590   -3.3930 ha        1 MOL      0.116192
    131 H57        10.8820    4.2690   -1.0340 ha        1 MOL      0.116314
    132 H58        10.2410    2.0210   -4.7510 ha        1 MOL      0.116314
    133 H59        11.3170    3.8650   -3.6470 ha        1 MOL      0.105335
    134 N12         6.0040    3.2230   -1.0350 n         1 MOL     -0.052342
    135 C45         6.0610    4.5340   -0.4530 c3        1 MOL     -0.228614
    136 C46         4.7800    5.0190    0.2360 c         1 MOL      0.622841
    137 O20         4.7390    6.1280    0.7300 o         1 MOL     -0.549907
    138 C47         6.4500    5.3930   -1.5980 c3        1 MOL     -0.052541
    139 C48         5.6040    4.8750   -2.7150 c3        1 MOL      0.104977
    140 C49         5.7410    3.3750   -2.4800 c3        1 MOL     -0.378020
    141 H60         6.8500    4.4910    0.3030 h1        1 MOL      0.105894
    142 H61         6.1970    6.4200   -1.3580 hc        1 MOL      0.051343
    143 H62         7.5320    5.3560   -1.7580 hc        1 MOL      0.051343
    144 H63         4.5540    5.1540   -2.6240 hc        1 MOL      0.021005
    145 H64         5.9890    5.2140   -3.6850 hc        1 MOL      0.021005
    146 H65         4.8350    2.8420   -2.7750 h1        1 MOL      0.132632
    147 H66         6.5160    2.9650   -3.1270 h1        1 MOL      0.132632
    148 N13         3.7220    4.1570    0.3940 n         1 MOL     -0.300924
    149 C50         2.4790    4.5050    1.0540 c3        1 MOL     -0.313858
    150 C51         2.6650    4.8710    2.5680 c         1 MOL      0.538879
    151 O21         1.7370    5.4150    3.1560 o         1 MOL     -0.526501
    152 C52         1.5770    3.2670    0.8370 c3        1 MOL      0.017633
    153 C53         2.0980    1.9740    1.4470 c3        1 MOL     -0.086196
    154 C54         1.3860    0.7610    0.8960 c         1 MOL      0.654219
    155 O22         1.8890    0.0650    0.0090 o         1 MOL     -0.735542
    156 O23         0.2440    0.4890    1.3090 o         1 MOL     -0.735542
    157 H67         3.8190    3.2700   -0.0680 hn        1 MOL      0.234688
    158 H68         1.9910    5.3310    0.5320 h1        1 MOL      0.175934
    159 H69         1.3590    3.1180   -0.2190 hc        1 MOL      0.065186
    160 H70         0.5890    3.4700    1.2490 hc        1 MOL      0.065186
    161 H71         2.0860    1.9540    2.5360 hc        1 MOL      0.026253
    162 H72         3.1280    1.7870    1.1240 hc        1 MOL      0.026253
    163 N14         3.8420    4.7050    3.1800 n         1 MOL     -0.243884
    164 C55         4.1080    5.0230    4.6000 c3        1 MOL     -0.033119
    165 H73         3.1630    5.1620    5.1240 h1        1 MOL      0.051493
    166 H74         4.6600    4.2040    5.0590 h1        1 MOL      0.051493
    167 H75         4.6960    5.9390    4.6640 h1        1 MOL      0.051493
    168 H76         4.6160    4.3580    2.6230 hn        1 MOL      0.214399
    169 Ca1        -0.3440   -1.3500   -0.3590 Ca        1 MOL      1.700500
    170 O24         0.8050   -0.5230   -2.8410 oh        1 MOL     -0.823077
    171 H77         0.7640   -0.0010   -3.6410 ho        1 MOL      0.404515
    172 H78         1.6830   -0.3750   -2.5020 ho        1 MOL      0.404515
    173 O25        -2.4230   -1.4730    1.2950 oh        1 MOL     -0.823077
    174 H79        -2.2480   -0.6950    1.8250 ho        1 MOL      0.404515
    175 H80        -3.3450   -1.3840    1.0560 ho        1 MOL      0.404515
@<TRIPOS>BOND
     1    1    2 1   
     2    1    4 1   
     3    1    5 1   
     4    1    6 1   
     5    2    3 2   
     6    2    7 1   
     7    7    8 1   
     8    7   15 1   
     9    8    9 1   
    10    8   11 1   
    11    8   16 1   
    12    9   10 2   
    13    9   19 1   
    14   11   12 1   
    15   11   17 1   
    16   11   18 1   
    17   12   13 1   
    18   12   14 1   
    19   19   20 1   
    20   19   24 1   
    21   20   21 1   
    22   20   23 1   
    23   20   25 1   
    24   21   22 2   
    25   21   29 1   
    26   23   26 1   
    27   23   27 1   
    28   23   28 1   
    29   29   30 1   
    30   29   37 1   
    31   30   31 1   
    32   30   33 1   
    33   30   38 1   
    34   31   32 2   
    35   31   41 1   
    36   33   34 1   
    37   33   39 1   
    38   33   40 1   
    39   34   35 1   
    40   34   36 1   
    41   41   42 1   
    42   41   45 1   
    43   42   43 1   
    44   42   46 1   
    45   42   47 1   
    46   43   44 2   
    47   43   48 1   
    48   48   49 1   
    49   48   56 1   
    50   49   50 1   
    51   49   52 1   
    52   49   57 1   
    53   50   51 2   
    54   50   62 1   
    55   52   53 1   
    56   52   58 1   
    57   52   59 1   
    58   53   54 1   
    59   53   55 2   
    60   54   60 1   
    61   54   61 1   
    62   62   63 1   
    63   62   66 1   
    64   63   64 1   
    65   63   67 1   
    66   63   68 1   
    67   64   65 2   
    68   64   69 1   
    69   69   70 1   
    70   69   76 1   
    71   70   71 1   
    72   70   73 1   
    73   70   77 1   
    74   71   72 2   
    75   71   83 1   
    76   73   74 1   
    77   73   75 1   
    78   73   78 1   
    79   74   80 1   
    80   74   81 1   
    81   74   82 1   
    82   75   79 1   
    83   83   84 1   
    84   83   91 1   
    85   84   85 1   
    86   84   87 1   
    87   84   92 1   
    88   85   86 2   
    89   85  102 1   
    90   87   88 1   
    91   87   89 1   
    92   87   93 1   
    93   88   90 1   
    94   88   94 1   
    95   88   95 1   
    96   89   96 1   
    97   89   97 1   
    98   89   98 1   
    99   90   99 1   
   100   90  100 1   
   101   90  101 1   
   102  102  103 1   
   103  102  110 1   
   104  103  104 1   
   105  103  106 1   
   106  103  111 1   
   107  104  105 2   
   108  104  114 1   
   109  106  107 1   
   110  106  112 1   
   111  106  113 1   
   112  107  108 1   
   113  107  109 1   
   114  114  115 1   
   115  114  125 1   
   116  115  116 1   
   117  115  118 1   
   118  115  126 1   
   119  116  117 2   
   120  116  134 1   
   121  118  119 1   
   122  118  127 1   
   123  118  128 1   
   124  119  120 ar  
   125  119  121 ar  
   126  120  122 ar  
   127  120  129 1   
   128  121  123 ar  
   129  121  130 1   
   130  122  124 ar  
   131  122  131 1   
   132  123  124 ar  
   133  123  132 1   
   134  124  133 1   
   135  134  135 1   
   136  134  140 1   
   137  135  136 1   
   138  135  138 1   
   139  135  141 1   
   140  136  137 2   
   141  136  148 1   
   142  138  139 1   
   143  138  142 1   
   144  138  143 1   
   145  139  140 1   
   146  139  144 1   
   147  139  145 1   
   148  140  146 1   
   149  140  147 1   
   150  148  149 1   
   151  148  157 1   
   152  149  150 1   
   153  149  152 1   
   154  149  158 1   
   155  150  151 2   
   156  150  163 1   
   157  152  153 1   
   158  152  159 1   
   159  152  160 1   
   160  153  154 1   
   161  153  161 1   
   162  153  162 1   
   163  154  155 1   
   164  154  156 1   
   165  163  164 1   
   166  163  168 1   
   167  164  165 1   
   168  164  166 1   
   169  164  167 1   
   170  170  171 1   
   171  170  172 1   
   172  173  174 1   
   173  173  175 1   
@<TRIPOS>SUBSTRUCTURE
     1 MOL         1 TEMP              0 ****  ****    0 ROOT
