@<TRIPOS>MOLECULE
MOL
  178   175     1     0     0
SMALL
resp


@<TRIPOS>ATOM
      1 C1          4.4980   -1.6050    2.9290 c3        1 MOL     -0.473826
      2 C2          5.6970   -0.6590    2.5280 c         1 MOL      0.608731
      3 O1          5.5380    0.3580    1.8920 o         1 MOL     -0.549792
      4 H1          4.8640   -2.6250    3.0490 hc        1 MOL      0.125618
      5 H2          4.0630   -1.2630    3.8680 hc        1 MOL      0.125618
      6 H3          3.7390   -1.5820    2.1470 hc        1 MOL      0.125618
      7 N1          6.8980   -1.0890    2.7790 n         1 MOL     -0.325105
      8 C3          8.1770   -0.4840    2.5140 c3        1 MOL     -0.045792
      9 C4          8.5080   -0.7570    1.0000 c         1 MOL      0.589025
     10 O2          8.7120   -1.8260    0.5070 o         1 MOL     -0.515061
     11 C5          9.2050   -1.1540    3.4170 c3        1 MOL     -0.384637
     12 C6         10.6160   -0.7920    2.9990 c         1 MOL      0.779132
     13 O3         11.4530   -1.7190    2.6880 o         1 MOL     -0.736311
     14 O4         11.0570    0.3850    3.0840 o         1 MOL     -0.736311
     15 H4          6.9340   -1.9360    3.3340 hn        1 MOL      0.248893
     16 H5          8.1830    0.5880    2.7170 h1        1 MOL      0.077798
     17 H6          9.0130   -2.2340    3.4570 hc        1 MOL      0.082508
     18 H7          8.9930   -0.8780    4.4470 hc        1 MOL      0.082508
     19 N2          8.4790    0.3760    0.2890 n         1 MOL     -0.489235
     20 C7          8.6980    0.4200   -1.1390 c3        1 MOL      0.268737
     21 C8          7.4700   -0.1190   -1.8850 c         1 MOL      0.351127
     22 O5          7.5030   -0.3440   -3.0250 o         1 MOL     -0.542582
     23 C9          9.0790    1.8140   -1.5770 c3        1 MOL     -0.347189
     24 H8          8.1300    1.2080    0.7580 hn        1 MOL      0.284279
     25 H9          9.5050   -0.2730   -1.3910 h1        1 MOL      0.079556
     26 H10         8.2090    2.4670   -1.5040 hc        1 MOL      0.086133
     27 H11         9.8470    2.0840   -0.8430 hc        1 MOL      0.086133
     28 H12         9.4580    1.8030   -2.5920 hc        1 MOL      0.086133
     29 N3          6.3660   -0.4120   -1.1760 n         1 MOL     -0.095481
     30 C10         5.1870   -1.1350   -1.4410 c3        1 MOL      0.275084
     31 C11         4.7000   -1.0150   -2.9360 c         1 MOL      0.329216
     32 O6          4.4680   -1.9680   -3.6300 o         1 MOL     -0.469375
     33 C12         5.2700   -2.5900   -0.8790 c3        1 MOL     -0.229289
     34 C13         3.8840   -3.2660   -1.0280 c         1 MOL      0.799265
     35 O7          3.7190   -4.4560   -1.3490 o         1 MOL     -0.798972
     36 O8          2.8550   -2.6430   -0.6830 o         1 MOL     -0.798972
     37 H13         6.3900   -0.1620   -0.1940 hn        1 MOL      0.003344
     38 H14         4.4700   -0.6860   -0.7550 h1        1 MOL     -0.018569
     39 H15         5.6680   -2.6010    0.1290 hc        1 MOL      0.041400
     40 H16         6.0170   -3.0920   -1.4980 hc        1 MOL      0.041400
     41 N4          4.5250    0.2320   -3.2840 n         1 MOL     -0.072532
     42 C14         4.1400    0.6790   -4.6050 c3        1 MOL     -0.178810
     43 C15         2.8890    1.5870   -4.6160 c         1 MOL      0.598338
     44 O9          2.4440    2.0460   -5.6670 o         1 MOL     -0.604715
     45 H17         4.8440    0.9140   -2.6230 hn        1 MOL      0.145402
     46 H18         3.9090   -0.2410   -5.1330 h1        1 MOL      0.091829
     47 H19         4.9430    1.2770   -5.0520 h1        1 MOL      0.091829
     48 N5          2.2840    1.9470   -3.4650 n         1 MOL     -0.444725
     49 C16         1.0720    2.7520   -3.3820 c3        1 MOL      0.356675
     50 C17         1.2850    3.9600   -2.3650 c         1 MOL      0.317455
     51 O10         2.0890    3.7610   -1.4020 o         1 MOL     -0.460692
     52 C18        -0.1240    1.8950   -3.0520 c3        1 MOL     -0.453446
     53 C19        -1.4530    2.5420   -3.3570 c         1 MOL      0.552710
     54 N6         -1.5850    3.3830   -4.3440 n         1 MOL     -0.701429
     55 O11        -2.4350    2.2470   -2.6580 o         1 MOL     -0.516368
     56 H20         2.5700    1.4460   -2.6380 hn        1 MOL      0.204176
     57 H21         0.9570    3.3420   -4.2950 h1        1 MOL     -0.041473
     58 H22        -0.2270    1.5840   -2.0220 hc        1 MOL      0.201394
     59 H23        -0.0290    1.0020   -3.6640 hc        1 MOL      0.201394
     60 H24        -0.8340    3.5160   -5.0000 hn        1 MOL      0.343746
     61 H25        -2.5040    3.7870   -4.5100 hn        1 MOL      0.343746
     62 N7          0.6480    5.0610   -2.7170 n         1 MOL     -0.238589
     63 C20         0.7080    6.2820   -1.8910 c3        1 MOL     -0.187702
     64 C21        -0.4040    6.3430   -0.8070 c         1 MOL      0.654982
     65 O12        -1.5180    6.0400   -1.0460 o         1 MOL     -0.496450
     66 H26         0.0420    4.9740   -3.5250 hn        1 MOL      0.245135
     67 H27         0.4690    7.1980   -2.4320 h1        1 MOL      0.089242
     68 H28         1.6400    6.3770   -1.3200 h1        1 MOL      0.089242
     69 N8         -0.1060    6.8610    0.4000 n         1 MOL     -0.463404
     70 C22        -1.1350    7.2310    1.3910 c3        1 MOL     -0.269259
     71 C23        -1.8770    5.9790    1.8960 c         1 MOL      0.345533
     72 O13        -3.0650    6.0410    2.1810 o         1 MOL     -0.529863
     73 C24        -0.6340    8.0700    2.6140 c3        1 MOL      0.408563
     74 C25         0.2690    7.3710    3.6180 c3        1 MOL     -0.272469
     75 O14        -0.0350    9.2680    2.2440 oh        1 MOL     -0.615713
     76 H29         0.8550    7.1100    0.5990 hn        1 MOL      0.264461
     77 H30        -1.8990    7.8090    0.8790 h1        1 MOL      0.182942
     78 H31        -1.4480    8.4250    3.2500 h1        1 MOL      0.054978
     79 H32         0.8700    9.0790    1.9880 ho        1 MOL      0.382485
     80 H33         0.7790    8.1540    4.1700 hc        1 MOL      0.064003
     81 H34        -0.1710    6.4900    4.1060 hc        1 MOL      0.064003
     82 H35         1.1180    6.9190    3.0970 hc        1 MOL      0.064003
     83 N9         -1.2810    4.7830    2.0150 n         1 MOL      0.077329
     84 C26        -1.9110    3.4340    2.0710 c3        1 MOL     -0.043404
     85 C27        -1.4440    2.4000    1.0120 c         1 MOL      0.416042
     86 O15        -0.4730    2.6520    0.2380 o         1 MOL     -0.500059
     87 C28        -1.9560    2.8450    3.5720 c3        1 MOL      0.111654
     88 C29        -0.5470    2.9340    4.2040 c3        1 MOL     -0.235230
     89 C30        -2.8770    3.7160    4.3800 c3        1 MOL     -0.360285
     90 C31         0.5650    2.1620    3.5650 c3        1 MOL     -0.008322
     91 H36        -0.2770    4.7510    1.8940 hn        1 MOL      0.144889
     92 H37        -2.9560    3.5930    1.8110 h1        1 MOL      0.098626
     93 H38        -2.3160    1.8200    3.5720 hc        1 MOL      0.080896
     94 H39        -0.6500    2.4970    5.1930 hc        1 MOL      0.047688
     95 H40        -0.1030    3.9280    4.2190 hc        1 MOL      0.047688
     96 H41        -2.4860    4.7350    4.3800 hc        1 MOL      0.085580
     97 H42        -3.8480    3.7840    3.9070 hc        1 MOL      0.085580
     98 H43        -2.8850    3.2870    5.3830 hc        1 MOL      0.085580
     99 H44         0.8010    2.5800    2.5890 hc        1 MOL      0.029269
    100 H45         1.4640    2.1500    4.1830 hc        1 MOL      0.029269
    101 H46         0.2310    1.1400    3.3490 hc        1 MOL      0.029269
    102 N10        -2.0550    1.2700    1.0990 n         1 MOL     -0.762644
    103 C32        -1.7270    0.1060    0.2270 c3        1 MOL      0.953407
    104 C33        -3.0330   -0.4940   -0.3210 c         1 MOL      0.214827
    105 O16        -3.2900   -1.6750   -0.2340 o         1 MOL     -0.311231
    106 C34        -0.9200   -0.8950    1.1280 c3        1 MOL     -0.084606
    107 C35        -0.3250   -2.1140    0.3950 c         1 MOL      0.754194
    108 O17        -0.3900   -2.1570   -0.8580 o         1 MOL     -0.753548
    109 O18         0.1890   -3.0560    1.0730 o         1 MOL     -0.753548
    110 H47        -2.7930    1.0700    1.7600 hn        1 MOL      0.311705
    111 H48        -1.0980    0.3630   -0.6250 h1        1 MOL     -0.212313
    112 H49        -1.4620   -1.2380    2.0080 hc        1 MOL     -0.034380
    113 H50        -0.0980   -0.2750    1.4750 hc        1 MOL     -0.034380
    114 N11        -3.8950    0.3430   -0.9140 n         1 MOL     -0.423473
    115 C36        -5.3200    0.0090   -1.1930 c3        1 MOL      0.264505
    116 C37        -6.0490   -0.8740   -0.1220 c         1 MOL      0.002439
    117 O19        -6.0800   -0.4910    1.0110 o         1 MOL     -0.445163
    118 C38        -5.9550    1.3690   -1.3540 c3        1 MOL     -0.077586
    119 C39        -7.4600    1.3140   -1.5440 ca        1 MOL     -0.026128
    120 C40        -8.0240    1.3830   -2.8380 ca        1 MOL     -0.076352
    121 C41        -8.3370    1.3410   -0.4770 ca        1 MOL     -0.076352
    122 C42        -9.4100    1.4680   -3.1130 ca        1 MOL     -0.160220
    123 C43        -9.7090    1.3960   -0.7200 ca        1 MOL     -0.160220
    124 C44       -10.2450    1.5230   -2.0170 ca        1 MOL     -0.072309
    125 H51        -3.6070    1.3110   -0.8730 hn        1 MOL      0.269685
    126 H52        -5.3790   -0.5730   -2.1110 h1        1 MOL     -0.025607
    127 H53        -5.5500    1.8010   -2.2690 hc        1 MOL      0.065832
    128 H54        -5.6330    2.1220   -0.6380 hc        1 MOL      0.065832
    129 H55        -7.4510    1.3210   -3.7600 ha        1 MOL      0.099875
    130 H56        -7.9270    1.3290    0.5250 ha        1 MOL      0.099875
    131 H57        -9.7200    1.3740   -4.1500 ha        1 MOL      0.113022
    132 H58       -10.3540    1.4440    0.1420 ha        1 MOL      0.113022
    133 H59       -11.2950    1.6990   -2.2110 ha        1 MOL      0.082702
    134 N12        -6.7050   -1.9930   -0.4030 n         1 MOL      0.291052
    135 C45        -7.5630   -2.7240    0.4860 c3        1 MOL     -0.083543
    136 C46        -6.7250   -3.6010    1.5030 c         1 MOL      0.490819
    137 O20        -7.3010   -4.2550    2.3540 o         1 MOL     -0.555875
    138 C47        -8.5940   -3.4840   -0.2900 c3        1 MOL      0.189989
    139 C48        -8.0070   -3.6540   -1.6650 c3        1 MOL     -0.381762
    140 C49        -6.9440   -2.5720   -1.7170 c3        1 MOL      0.244681
    141 H60        -8.1600   -2.0500    1.0880 h1        1 MOL      0.039465
    142 H61        -8.8330   -4.4160    0.2390 hc        1 MOL     -0.025106
    143 H62        -9.4840   -2.8750   -0.3710 hc        1 MOL     -0.025106
    144 H63        -7.4550   -4.5980   -1.7360 hc        1 MOL      0.101146
    145 H64        -8.7680   -3.3150   -2.3640 hc        1 MOL      0.101146
    146 H65        -6.0450   -3.0910   -2.0370 h1        1 MOL     -0.047872
    147 H66        -7.2700   -1.8170   -2.4320 h1        1 MOL     -0.047872
    148 N13        -5.3900   -3.4960    1.4470 n         1 MOL     -0.227955
    149 C50        -4.5920   -4.3590    2.2580 c3        1 MOL     -0.128460
    150 C51        -4.2630   -3.8040    3.6430 c         1 MOL      0.459817
    151 O21        -3.9660   -4.6100    4.5120 o         1 MOL     -0.540404
    152 C52        -3.2240   -4.4970    1.6390 c3        1 MOL      0.137268
    153 C53        -3.2100   -5.0330    0.1430 c3        1 MOL     -0.310927
    154 C54        -1.7820   -5.2080   -0.3210 c         1 MOL      0.714400
    155 O22        -0.9430   -5.7770    0.4450 o         1 MOL     -0.769631
    156 O23        -1.3260   -4.8820   -1.4600 o         1 MOL     -0.769631
    157 H67        -5.0130   -2.9300    0.7040 hn        1 MOL      0.014962
    158 H68        -4.9980   -5.3650    2.3520 h1        1 MOL      0.117452
    159 H69        -2.5970   -5.1260    2.2670 hc        1 MOL      0.009210
    160 H70        -2.6390   -3.5790    1.7240 hc        1 MOL      0.009210
    161 H71        -3.7200   -4.3440   -0.5300 hc        1 MOL      0.092861
    162 H72        -3.6080   -6.0510    0.0980 hc        1 MOL      0.092861
    163 N14        -4.1870   -2.4760    3.8480 n         1 MOL     -0.117710
    164 C55        -3.9490   -1.8160    5.1310 c3        1 MOL     -0.324965
    165 H73        -4.1970   -0.7570    5.0460 h1        1 MOL      0.118016
    166 H74        -4.5730   -2.2750    5.8980 h1        1 MOL      0.118016
    167 H75        -2.8990   -1.9220    5.4060 h1        1 MOL      0.118016
    168 H76        -4.4100   -1.9370    3.0280 hn        1 MOL      0.162946
    169 Ca1         1.1450   -4.6400   -0.7590 Ca        1 MOL      1.750964
    170 O24         2.4310   -6.0610    1.0830 oh        1 MOL     -0.769346
    171 H77         2.1280   -6.9300    1.3530 ho        1 MOL      0.386043
    172 H78         3.1710   -5.8740    1.6540 ho        1 MOL      0.386043
    173 O25         1.6560   -7.3430   -1.7450 oh        1 MOL     -0.769346
    174 H79         2.4620   -7.6020   -2.1970 ho        1 MOL      0.386043
    175 H80         1.4740   -8.0800   -1.1530 ho        1 MOL      0.386043
    176 O26         1.0750   -4.2400   -3.3810 oh        1 MOL     -0.769346
    177 H81         0.8900   -3.3210   -3.5700 ho        1 MOL      0.386043
    178 H82         1.6140   -4.5260   -4.1150 ho        1 MOL      0.386043
@<TRIPOS>BOND
     1    1    2 1   
     2    1    4 1   
     3    1    5 1   
     4    1    6 1   
     5    2    3 2   
     6    2    7 1   
     7    7    8 1   
     8    7   15 1   
     9    8    9 1   
    10    8   11 1   
    11    8   16 1   
    12    9   10 2   
    13    9   19 1   
    14   11   12 1   
    15   11   17 1   
    16   11   18 1   
    17   12   13 1   
    18   12   14 1   
    19   19   20 1   
    20   19   24 1   
    21   20   21 1   
    22   20   23 1   
    23   20   25 1   
    24   21   22 2   
    25   21   29 1   
    26   23   26 1   
    27   23   27 1   
    28   23   28 1   
    29   29   30 1   
    30   29   37 1   
    31   30   31 1   
    32   30   33 1   
    33   30   38 1   
    34   31   32 2   
    35   31   41 1   
    36   33   34 1   
    37   33   39 1   
    38   33   40 1   
    39   34   35 1   
    40   34   36 1   
    41   41   42 1   
    42   41   45 1   
    43   42   43 1   
    44   42   46 1   
    45   42   47 1   
    46   43   44 2   
    47   43   48 1   
    48   48   49 1   
    49   48   56 1   
    50   49   50 1   
    51   49   52 1   
    52   49   57 1   
    53   50   51 2   
    54   50   62 1   
    55   52   53 1   
    56   52   58 1   
    57   52   59 1   
    58   53   54 1   
    59   53   55 2   
    60   54   60 1   
    61   54   61 1   
    62   62   63 1   
    63   62   66 1   
    64   63   64 1   
    65   63   67 1   
    66   63   68 1   
    67   64   65 2   
    68   64   69 1   
    69   69   70 1   
    70   69   76 1   
    71   70   71 1   
    72   70   73 1   
    73   70   77 1   
    74   71   72 2   
    75   71   83 1   
    76   73   74 1   
    77   73   75 1   
    78   73   78 1   
    79   74   80 1   
    80   74   81 1   
    81   74   82 1   
    82   75   79 1   
    83   83   84 1   
    84   83   91 1   
    85   84   85 1   
    86   84   87 1   
    87   84   92 1   
    88   85   86 2   
    89   85  102 1   
    90   87   88 1   
    91   87   89 1   
    92   87   93 1   
    93   88   90 1   
    94   88   94 1   
    95   88   95 1   
    96   89   96 1   
    97   89   97 1   
    98   89   98 1   
    99   90   99 1   
   100   90  100 1   
   101   90  101 1   
   102  102  103 1   
   103  102  110 1   
   104  103  104 1   
   105  103  106 1   
   106  103  111 1   
   107  104  105 2   
   108  104  114 1   
   109  106  107 1   
   110  106  112 1   
   111  106  113 1   
   112  107  108 1   
   113  107  109 1   
   114  114  115 1   
   115  114  125 1   
   116  115  116 1   
   117  115  118 1   
   118  115  126 1   
   119  116  117 2   
   120  116  134 1   
   121  118  119 1   
   122  118  127 1   
   123  118  128 1   
   124  119  120 ar  
   125  119  121 ar  
   126  120  122 ar  
   127  120  129 1   
   128  121  123 ar  
   129  121  130 1   
   130  122  124 ar  
   131  122  131 1   
   132  123  124 ar  
   133  123  132 1   
   134  124  133 1   
   135  134  135 1   
   136  134  140 1   
   137  135  136 1   
   138  135  138 1   
   139  135  141 1   
   140  136  137 2   
   141  136  148 1   
   142  138  139 1   
   143  138  142 1   
   144  138  143 1   
   145  139  140 1   
   146  139  144 1   
   147  139  145 1   
   148  140  146 1   
   149  140  147 1   
   150  148  149 1   
   151  148  157 1   
   152  149  150 1   
   153  149  152 1   
   154  149  158 1   
   155  150  151 2   
   156  150  163 1   
   157  152  153 1   
   158  152  159 1   
   159  152  160 1   
   160  153  154 1   
   161  153  161 1   
   162  153  162 1   
   163  154  155 1   
   164  154  156 1   
   165  163  164 1   
   166  163  168 1   
   167  164  165 1   
   168  164  166 1   
   169  164  167 1   
   170  170  171 1   
   171  170  172 1   
   172  173  174 1   
   173  173  175 1   
   174  176  177 1   
   175  176  178 1   
@<TRIPOS>SUBSTRUCTURE
     1 MOL         1 TEMP              0 ****  ****    0 ROOT
