@<TRIPOS>MOLECULE
MOL
  188   182     1     0     0
SMALL
resp


@<TRIPOS>ATOM
      1 C1          4.4670    0.2930    5.9070 c3        1 MOL     -0.510617
      2 C2          3.6500    0.3820    4.5850 c         1 MOL      0.731290
      3 O1          2.5090    0.7570    4.5580 o         1 MOL     -0.586134
      4 H1          4.8980    1.2680    6.1340 hc        1 MOL      0.129888
      5 H2          3.8100   -0.0110    6.7220 hc        1 MOL      0.129888
      6 H3          5.2670   -0.4400    5.7910 hc        1 MOL      0.129888
      7 N1          4.2960   -0.0310    3.4580 n         1 MOL     -0.515610
      8 C3          3.7620   -0.0430    2.0810 c3        1 MOL      0.155965
      9 C4          4.0720   -1.4330    1.5460 c         1 MOL      0.215690
     10 O2          3.1610   -1.9880    0.8740 o         1 MOL     -0.361156
     11 C5          4.4100    1.0350    1.1840 c3        1 MOL     -0.118816
     12 C6          5.9320    1.1090    1.2470 c         1 MOL      0.673638
     13 O3          6.6270    0.3180    1.9190 o         1 MOL     -0.680916
     14 O4          6.4910    2.1100    0.6700 o         1 MOL     -0.680916
     15 H4          5.2400   -0.3570    3.5640 hn        1 MOL      0.228848
     16 H5          2.6960    0.1660    2.1880 h1        1 MOL      0.028424
     17 H6          3.9980    1.9990    1.4570 hc        1 MOL      0.035879
     18 H7          4.2200    0.7620    0.1370 hc        1 MOL      0.035879
     19 N2          5.1790   -2.1130    1.8510 n         1 MOL     -0.299240
     20 C7          5.5550   -3.4410    1.3300 c3        1 MOL      0.137811
     21 C8          5.9690   -3.3830   -0.1670 c         1 MOL      0.334593
     22 O5          7.1570   -3.5640   -0.5180 o         1 MOL     -0.557001
     23 C9          6.6910   -4.0660    2.2330 c3        1 MOL     -0.278258
     24 C10         6.2650   -4.3570    3.7200 c3        1 MOL      0.257718
     25 C11         7.4050   -4.8870    4.6140 c3        1 MOL     -0.350517
     26 C12         8.4490   -3.7500    4.8110 c3        1 MOL      0.172632
     27 N3          9.4290   -4.1350    5.8150 n4        1 MOL     -0.457615
     28 H8          5.9370   -1.6080    2.2880 hn        1 MOL      0.292748
     29 H9          4.7350   -4.1340    1.5130 h1        1 MOL      0.045881
     30 H10         7.5390   -3.3990    2.3530 hc        1 MOL      0.099005
     31 H11         7.0040   -5.0180    1.8000 hc        1 MOL      0.099005
     32 H12         5.4880   -5.1140    3.7270 hc        1 MOL     -0.040383
     33 H13         5.9650   -3.4260    4.1940 hc        1 MOL     -0.040383
     34 H14         7.8150   -5.7560    4.0920 hc        1 MOL      0.117102
     35 H15         7.0590   -5.1900    5.6090 hc        1 MOL      0.117102
     36 H16         7.8950   -2.8520    5.0710 hx        1 MOL      0.063461
     37 H17         9.0240   -3.4590    3.9340 hx        1 MOL      0.063461
     38 H18         9.0310   -4.4070    6.6980 hn        1 MOL      0.352127
     39 H19         9.9500   -4.9500    5.5180 hn        1 MOL      0.352127
     40 H20        10.1200   -3.4010    5.9020 hn        1 MOL      0.352127
     41 N4          5.0470   -3.1520   -1.0880 n         1 MOL      0.052593
     42 C13         5.2860   -2.9870   -2.5010 c3        1 MOL     -0.123614
     43 C14         5.1010   -1.5400   -2.9260 c         1 MOL      0.635214
     44 O6          4.1520   -1.1120   -3.5630 o         1 MOL     -0.522681
     45 C15         4.3720   -3.8950   -3.2820 c3        1 MOL     -0.057945
     46 C16         2.9050   -3.9910   -2.7810 c         1 MOL      0.590512
     47 O7          2.1780   -4.7350   -3.4690 o         1 MOL     -0.654669
     48 O8          2.4080   -3.2490   -1.8960 o         1 MOL     -0.654669
     49 H21         4.0810   -3.2340   -0.8160 hn        1 MOL     -0.042603
     50 H22         6.2660   -3.3250   -2.8460 h1        1 MOL      0.072040
     51 H23         4.7310   -4.9230   -3.1870 hc        1 MOL      0.041150
     52 H24         4.3270   -3.6980   -4.3530 hc        1 MOL      0.041150
     53 N5          6.0190   -0.6970   -2.4710 n         1 MOL     -0.573399
     54 C17         5.8260    0.6930   -2.5000 c3        1 MOL      0.236904
     55 C18         6.1940    1.3170   -3.8750 c         1 MOL      0.427163
     56 O9          6.9100    0.6510   -4.6600 o         1 MOL     -0.498902
     57 H25         6.7430   -1.0990   -1.8930 hn        1 MOL      0.327613
     58 H26         6.4450    1.0710   -1.6880 h1        1 MOL      0.036945
     59 H27         4.7820    0.9900   -2.4010 h1        1 MOL      0.036945
     60 N6          5.6510    2.5570   -4.1770 n         1 MOL     -0.507643
     61 C19         4.6360    3.2730   -3.4830 c3        1 MOL      0.240571
     62 C20         5.1810    3.9920   -2.1880 c         1 MOL      0.404539
     63 O10         6.3400    4.3810   -2.0670 o         1 MOL     -0.494915
     64 C21         4.2680    4.3440   -4.5450 c3        1 MOL     -0.416065
     65 C22         3.4960    3.8510   -5.7160 c         1 MOL      0.743130
     66 N7          3.4130    4.5090   -6.8270 n         1 MOL     -0.785690
     67 O11         2.8130    2.8620   -5.6200 o         1 MOL     -0.554544
     68 H28         6.0780    2.9960   -4.9840 hn        1 MOL      0.320182
     69 H29         3.7490    2.6890   -3.2180 h1        1 MOL     -0.005977
     70 H30         5.2230    4.7920   -4.8490 hc        1 MOL      0.106097
     71 H31         3.6260    5.1270   -4.1530 hc        1 MOL      0.106097
     72 H32         3.9560    5.3560   -6.8180 hn        1 MOL      0.362401
     73 H33         2.6520    4.2450   -7.4460 hn        1 MOL      0.362401
     74 N8          4.2990    4.3340   -1.2920 n         1 MOL     -0.280832
     75 C23         2.8550    3.9910   -1.2720 c3        1 MOL     -0.151694
     76 C24         2.0210    4.6190   -0.1010 c         1 MOL      0.663485
     77 O12         2.4390    5.4580    0.6930 o         1 MOL     -0.535398
     78 H34         4.5570    4.8900   -0.4910 hn        1 MOL      0.267429
     79 H35         2.6980    2.9290   -1.0970 h1        1 MOL      0.066400
     80 H36         2.3320    4.2860   -2.1840 h1        1 MOL      0.066400
     81 N9          0.7300    4.3940   -0.1540 n         1 MOL     -0.540820
     82 C25        -0.3480    4.7040    0.8780 c3        1 MOL      0.116672
     83 C26        -1.3690    3.4700    0.8800 c         1 MOL      0.414974
     84 O13        -1.3170    2.5940   -0.0180 o         1 MOL     -0.451050
     85 C27        -1.0320    5.9820    0.3030 c3        1 MOL     -0.244545
     86 C28        -2.1450    6.6720    1.1220 ca        1 MOL      0.043091
     87 C29        -3.4170    6.9860    0.5900 ca        1 MOL     -0.124482
     88 C30        -1.8690    6.9910    2.4450 ca        1 MOL     -0.124482
     89 C31        -4.3690    7.6780    1.3960 ca        1 MOL     -0.232419
     90 C32        -2.7670    7.7650    3.1930 ca        1 MOL     -0.232419
     91 C33        -4.0620    7.9660    2.7410 ca        1 MOL      0.312760
     92 O14        -4.8860    8.6850    3.5430 oh        1 MOL     -0.486042
     93 H37         0.3260    3.9050   -0.9390 hn        1 MOL      0.276671
     94 H38         0.0210    4.8840    1.8910 h1        1 MOL      0.087401
     95 H39        -1.4440    5.7460   -0.6840 hc        1 MOL      0.123837
     96 H40        -0.2550    6.6670   -0.0180 hc        1 MOL      0.123837
     97 H41        -3.6110    6.7580   -0.4520 ha        1 MOL      0.124442
     98 H42        -0.9160    6.7930    2.9110 ha        1 MOL      0.124442
     99 H43        -5.3470    7.9250    0.9960 ha        1 MOL      0.139999
    100 H44        -2.3990    7.9440    4.1860 ha        1 MOL      0.139999
    101 H45        -4.5540    8.8450    4.4280 ho        1 MOL      0.362155
    102 N10        -2.3240    3.4790    1.8260 n         1 MOL     -0.359119
    103 C34        -3.4610    2.5020    1.8170 c3        1 MOL     -0.063626
    104 C35        -4.3600    2.5730    0.5380 c         1 MOL      0.631089
    105 O15        -4.3700    3.6220   -0.1060 o         1 MOL     -0.502081
    106 C36        -4.3690    2.5080    3.0340 c3        1 MOL      0.232924
    107 C37        -3.7540    1.7280    4.1880 c3        1 MOL     -0.037391
    108 C38        -4.6680    3.9480    3.4540 c3        1 MOL      0.037291
    109 C39        -4.6640    1.6150    5.3950 c3        1 MOL     -0.258110
    110 H46        -2.4340    4.1880    2.5380 hn        1 MOL      0.223210
    111 H47        -2.9480    1.5380    1.8440 h1        1 MOL      0.019166
    112 H48        -5.3000    2.0080    2.7590 hc        1 MOL     -0.009733
    113 H49        -2.7710    2.1110    4.4520 hc        1 MOL      0.024961
    114 H50        -3.5100    0.6910    3.9540 hc        1 MOL      0.024961
    115 H51        -3.8240    4.4550    3.9200 hc        1 MOL     -0.018818
    116 H52        -5.0020    4.4630    2.5600 hc        1 MOL     -0.018818
    117 H53        -5.4060    3.9040    4.2610 hc        1 MOL     -0.018818
    118 H54        -4.2250    0.9150    6.1130 hc        1 MOL      0.068943
    119 H55        -4.6310    2.5550    5.9450 hc        1 MOL      0.068943
    120 H56        -5.7330    1.4390    5.2650 hc        1 MOL      0.068943
    121 N11        -5.0900    1.4980    0.2110 n         1 MOL     -0.599657
    122 C40        -6.0480    1.4790   -0.8990 c3        1 MOL      0.205701
    123 C41        -6.0510    0.1570   -1.6260 c         1 MOL      0.540350
    124 O16        -5.6110   -0.8620   -1.1010 o         1 MOL     -0.463559
    125 C42        -7.4360    1.8520   -0.3300 c3        1 MOL      0.020058
    126 O17        -7.8530    0.9070    0.6220 oh        1 MOL     -0.572658
    127 H57        -5.0200    0.6300    0.7280 hn        1 MOL      0.317003
    128 H58        -5.8160    2.2570   -1.6230 h1        1 MOL      0.013014
    129 H59        -8.0910    1.7720   -1.1970 h1        1 MOL      0.046928
    130 H60        -7.4810    2.8620    0.0740 h1        1 MOL      0.046928
    131 H61        -8.7870    1.0980    0.7190 ho        1 MOL      0.407431
    132 N12        -6.6250    0.1040   -2.7980 n         1 MOL     -0.452263
    133 C43        -6.4200   -1.0430   -3.6840 c3        1 MOL      0.117376
    134 C44        -7.1300   -2.3350   -3.1490 c         1 MOL      0.457102
    135 O18        -6.8770   -3.3960   -3.7230 o         1 MOL     -0.451482
    136 C45        -4.9090   -1.1590   -3.9760 c3        1 MOL     -0.411925
    137 H62        -7.1190    0.8730   -3.2300 hn        1 MOL      0.287387
    138 H63        -7.0070   -0.9160   -4.5910 h1        1 MOL      0.075854
    139 H64        -4.6030   -0.1960   -4.3760 hc        1 MOL      0.129775
    140 H65        -4.3210   -1.3400   -3.0750 hc        1 MOL      0.129775
    141 H66        -4.8040   -2.0230   -4.6450 hc        1 MOL      0.129775
    142 N13        -7.9950   -2.2260   -2.1430 n         1 MOL     -0.534433
    143 C46        -8.6270   -3.3950   -1.5900 c3        1 MOL      0.408229
    144 C47        -7.6130   -4.3880   -0.9950 c         1 MOL      0.076116
    145 O19        -7.8510   -5.5950   -1.0970 o         1 MOL     -0.415212
    146 C48        -9.6990   -3.8230   -2.5920 c3        1 MOL     -0.428149
    147 H67        -8.1640   -1.3190   -1.7380 hn        1 MOL      0.271848
    148 H68        -9.1510   -2.9260   -0.7610 h1        1 MOL     -0.017253
    149 H69       -10.2560   -2.9970   -3.0180 hc        1 MOL      0.121941
    150 H70        -9.2330   -4.3040   -3.4500 hc        1 MOL      0.121941
    151 H71       -10.3780   -4.4940   -2.0720 hc        1 MOL      0.121941
    152 N14        -6.4510   -3.9490   -0.5480 n         1 MOL     -0.035587
    153 C49        -5.5120   -4.7340    0.2510 c3        1 MOL     -0.058050
    154 C50        -6.2200   -5.2990    1.5650 c         1 MOL      0.375910
    155 O20        -6.0880   -6.4650    1.9170 o         1 MOL     -0.515394
    156 C51        -4.2690   -3.9090    0.6740 c3        1 MOL      0.005622
    157 C52        -3.4520   -3.6450   -0.5550 c3        1 MOL      0.017140
    158 C53        -2.0430   -3.2380   -0.2590 c         1 MOL      0.657642
    159 O21        -1.1000   -4.0850   -0.3390 o         1 MOL     -0.753664
    160 O22        -1.7440   -2.0560    0.0550 o         1 MOL     -0.753664
    161 H72        -6.3000   -2.9560   -0.6870 hn        1 MOL      0.135975
    162 H73        -5.2800   -5.5980   -0.3690 h1        1 MOL      0.135174
    163 H74        -3.6750   -4.5090    1.3710 hc        1 MOL      0.013947
    164 H75        -4.6620   -2.9990    1.1310 hc        1 MOL      0.013947
    165 H76        -3.9150   -2.9220   -1.2350 hc        1 MOL      0.008836
    166 H77        -3.3690   -4.6140   -1.0540 hc        1 MOL      0.008836
    167 N15        -7.0380   -4.5420    2.2330 n         1 MOL     -0.156084
    168 C54        -7.6870   -4.8110    3.5110 c3        1 MOL     -0.153115
    169 H78        -7.6080   -5.8730    3.7410 h1        1 MOL      0.084052
    170 H79        -7.1990   -4.2320    4.2950 h1        1 MOL      0.084052
    171 H80        -8.7380   -4.5290    3.4510 h1        1 MOL      0.084052
    172 H81        -6.8950   -3.5760    2.0060 hn        1 MOL      0.171486
    173 Ca1         0.7780   -2.2430   -0.2450 Ca        1 MOL      1.700242
    174 O23         2.1130   -0.2470   -1.7440 oh        1 MOL     -0.812730
    175 H82         1.8400    0.5680   -2.1630 ho        1 MOL      0.400373
    176 H83         2.7800   -0.6070   -2.3240 ho        1 MOL      0.400373
    177 O24        -0.3780   -1.7520   -2.7820 oh        1 MOL     -0.812730
    178 H84         0.1060   -1.4710   -3.5560 ho        1 MOL      0.400373
    179 H85        -1.2920   -1.6660   -3.0280 ho        1 MOL      0.400373
    180 O25         0.7350   -1.6480    2.5240 oh        1 MOL     -0.812730
    181 H86         0.2520   -0.9250    2.9090 ho        1 MOL      0.400373
    182 H87         1.2180   -2.0300    3.2640 ho        1 MOL      0.400373
    183 O26         0.0780    0.2810    0.5170 oh        1 MOL     -0.812730
    184 H88         0.1800    0.5430    1.4360 ho        1 MOL      0.400373
    185 H89        -0.6180    0.8570    0.1850 ho        1 MOL      0.400373
    186 O27         1.3610   -4.8640    0.9510 oh        1 MOL     -0.812730
    187 H90         0.7580   -5.5440    0.6470 ho        1 MOL      0.400373
    188 H91         2.1830   -5.3420    1.1020 ho        1 MOL      0.400373
@<TRIPOS>BOND
     1    1    2 1   
     2    1    4 1   
     3    1    5 1   
     4    1    6 1   
     5    2    3 2   
     6    2    7 1   
     7    7    8 1   
     8    7   15 1   
     9    8    9 1   
    10    8   11 1   
    11    8   16 1   
    12    9   10 2   
    13    9   19 1   
    14   11   12 1   
    15   11   17 1   
    16   11   18 1   
    17   12   13 1   
    18   12   14 1   
    19   19   20 1   
    20   19   28 1   
    21   20   21 1   
    22   20   23 1   
    23   20   29 1   
    24   21   22 2   
    25   21   41 1   
    26   23   24 1   
    27   23   30 1   
    28   23   31 1   
    29   24   25 1   
    30   24   32 1   
    31   24   33 1   
    32   25   26 1   
    33   25   34 1   
    34   25   35 1   
    35   26   27 1   
    36   26   36 1   
    37   26   37 1   
    38   27   38 1   
    39   27   39 1   
    40   27   40 1   
    41   41   42 1   
    42   41   49 1   
    43   42   43 1   
    44   42   45 1   
    45   42   50 1   
    46   43   44 2   
    47   43   53 1   
    48   45   46 1   
    49   45   51 1   
    50   45   52 1   
    51   46   47 1   
    52   46   48 1   
    53   53   54 1   
    54   53   57 1   
    55   54   55 1   
    56   54   58 1   
    57   54   59 1   
    58   55   56 2   
    59   55   60 1   
    60   60   61 1   
    61   60   68 1   
    62   61   62 1   
    63   61   64 1   
    64   61   69 1   
    65   62   63 2   
    66   62   74 1   
    67   64   65 1   
    68   64   70 1   
    69   64   71 1   
    70   65   66 1   
    71   65   67 2   
    72   66   72 1   
    73   66   73 1   
    74   74   75 1   
    75   74   78 1   
    76   75   76 1   
    77   75   79 1   
    78   75   80 1   
    79   76   77 2   
    80   76   81 1   
    81   81   82 1   
    82   81   93 1   
    83   82   83 1   
    84   82   85 1   
    85   82   94 1   
    86   83   84 2   
    87   83  102 1   
    88   85   86 1   
    89   85   95 1   
    90   85   96 1   
    91   86   87 ar  
    92   86   88 ar  
    93   87   89 ar  
    94   87   97 1   
    95   88   90 ar  
    96   88   98 1   
    97   89   91 ar  
    98   89   99 1   
    99   90   91 ar  
   100   90  100 1   
   101   91   92 1   
   102   92  101 1   
   103  102  103 1   
   104  102  110 1   
   105  103  104 1   
   106  103  106 1   
   107  103  111 1   
   108  104  105 2   
   109  104  121 1   
   110  106  107 1   
   111  106  108 1   
   112  106  112 1   
   113  107  109 1   
   114  107  113 1   
   115  107  114 1   
   116  108  115 1   
   117  108  116 1   
   118  108  117 1   
   119  109  118 1   
   120  109  119 1   
   121  109  120 1   
   122  121  122 1   
   123  121  127 1   
   124  122  123 1   
   125  122  125 1   
   126  122  128 1   
   127  123  124 2   
   128  123  132 1   
   129  125  126 1   
   130  125  129 1   
   131  125  130 1   
   132  126  131 1   
   133  132  133 1   
   134  132  137 1   
   135  133  134 1   
   136  133  136 1   
   137  133  138 1   
   138  134  135 2   
   139  134  142 1   
   140  136  139 1   
   141  136  140 1   
   142  136  141 1   
   143  142  143 1   
   144  142  147 1   
   145  143  144 1   
   146  143  146 1   
   147  143  148 1   
   148  144  145 2   
   149  144  152 1   
   150  146  149 1   
   151  146  150 1   
   152  146  151 1   
   153  152  153 1   
   154  152  161 1   
   155  153  154 1   
   156  153  156 1   
   157  153  162 1   
   158  154  155 2   
   159  154  167 1   
   160  156  157 1   
   161  156  163 1   
   162  156  164 1   
   163  157  158 1   
   164  157  165 1   
   165  157  166 1   
   166  158  159 1   
   167  158  160 1   
   168  167  168 1   
   169  167  172 1   
   170  168  169 1   
   171  168  170 1   
   172  168  171 1   
   173  174  175 1   
   174  174  176 1   
   175  177  178 1   
   176  177  179 1   
   177  180  181 1   
   178  180  182 1   
   179  183  184 1   
   180  183  185 1   
   181  186  187 1   
   182  186  188 1   
@<TRIPOS>SUBSTRUCTURE
     1 MOL         1 TEMP              0 ****  ****    0 ROOT
