@<TRIPOS>MOLECULE
MOL
  178   175     1     0     0
SMALL
resp


@<TRIPOS>ATOM
      1 C1          9.0350   -6.2250    3.5140 c3        1 MOL     -0.255988
      2 C2          8.0310   -5.5430    2.5830 c         1 MOL      0.645449
      3 O1          6.8880   -5.9210    2.4610 o         1 MOL     -0.546721
      4 H1          8.5050   -6.6710    4.3550 hc        1 MOL      0.056326
      5 H2          9.5670   -7.0040    2.9660 hc        1 MOL      0.056326
      6 H3          9.7470   -5.4880    3.8830 hc        1 MOL      0.056326
      7 N1          8.5270   -4.6030    1.7190 n         1 MOL     -0.444913
      8 C3          9.9230   -4.0590    1.5960 c3        1 MOL     -0.048526
      9 C4         10.1740   -3.9030    0.0710 c         1 MOL      0.497304
     10 O2          9.2940   -4.3360   -0.7200 o         1 MOL     -0.454712
     11 C5         10.0530   -2.7010    2.3820 c3        1 MOL     -0.018086
     12 C6          9.0660   -1.6730    1.9040 c         1 MOL      0.454407
     13 O3          8.1460   -1.4070    2.6500 o         1 MOL     -0.635384
     14 O4          9.3150   -0.9680    0.8520 o         1 MOL     -0.635384
     15 H4          7.8690   -4.2930    1.0170 hn        1 MOL      0.333880
     16 H5         10.6890   -4.7180    2.0000 h1        1 MOL      0.064849
     17 H6         11.0600   -2.3120    2.2530 hc        1 MOL      0.009352
     18 H7          9.9290   -2.8440    3.4580 hc        1 MOL      0.009352
     19 N2         11.1540   -3.1730   -0.4290 n         1 MOL     -0.511937
     20 C7         11.4900   -2.7380   -1.7740 c3        1 MOL      0.262586
     21 C8         10.2430   -2.1940   -2.5690 c         1 MOL      0.411248
     22 O5         10.2050   -2.4140   -3.8030 o         1 MOL     -0.567776
     23 C9         12.3320   -3.7560   -2.4870 c3        1 MOL     -0.380749
     24 H8         11.7020   -2.6630    0.2410 hn        1 MOL      0.286394
     25 H9         12.0680   -1.8200   -1.6790 h1        1 MOL      0.015367
     26 H10        11.7120   -4.6020   -2.7900 hc        1 MOL      0.103912
     27 H11        12.8150   -3.4300   -3.4060 hc        1 MOL      0.103912
     28 H12        13.0870   -4.2130   -1.8490 hc        1 MOL      0.103912
     29 N3          9.2810   -1.4870   -2.0100 n         1 MOL     -0.115947
     30 C10         8.0460   -0.9740   -2.6720 c3        1 MOL     -0.151997
     31 C11         7.7220    0.4750   -2.2750 c         1 MOL      0.489954
     32 O6          8.4170    0.9160   -1.3120 o         1 MOL     -0.536001
     33 C12         6.8640   -1.9380   -2.3320 c3        1 MOL     -0.320915
     34 C13         6.6980   -2.2090   -0.8530 c         1 MOL      0.693055
     35 O7          6.5170   -3.3720   -0.4250 o         1 MOL     -0.644409
     36 O8          6.5980   -1.2000   -0.0660 o         1 MOL     -0.644409
     37 H13         9.3900   -1.2630   -1.0340 hn        1 MOL      0.102308
     38 H14         8.1280   -1.0430   -3.7570 h1        1 MOL      0.106113
     39 H15         7.2520   -2.8510   -2.7840 hc        1 MOL      0.132168
     40 H16         5.9610   -1.6300   -2.8430 hc        1 MOL      0.132168
     41 N4          6.6070    1.1000   -2.8030 n         1 MOL     -0.409418
     42 C14         6.1420    2.4580   -2.5220 c3        1 MOL     -0.193566
     43 C15         5.5550    2.6520   -1.1240 c         1 MOL      0.641202
     44 O9          5.6330    1.7680   -0.2990 o         1 MOL     -0.532167
     45 H17         6.1440    0.6040   -3.5600 hn        1 MOL      0.319058
     46 H18         5.3280    2.7080   -3.2080 h1        1 MOL      0.116874
     47 H19         6.9310    3.1910   -2.7140 h1        1 MOL      0.116874
     48 N5          5.0980    3.8890   -0.8380 n         1 MOL     -0.474977
     49 C16         4.5130    4.1860    0.4630 c3        1 MOL      0.120058
     50 C17         3.2350    5.0270    0.2940 c         1 MOL      0.494521
     51 O10         3.2850    5.9630   -0.5290 o         1 MOL     -0.504537
     52 C18         5.4490    5.0960    1.2940 c3        1 MOL     -0.305988
     53 C19         6.6860    4.3670    1.7780 c         1 MOL      0.561721
     54 N6          7.8660    4.9180    1.6420 n         1 MOL     -0.620294
     55 O11         6.5740    3.2300    2.2800 o         1 MOL     -0.570754
     56 H20         5.0430    4.6450   -1.5040 hn        1 MOL      0.286417
     57 H21         4.2520    3.2730    0.9890 h1        1 MOL      0.074867
     58 H22         4.9280    5.4300    2.1920 hc        1 MOL      0.108661
     59 H23         5.8050    5.9070    0.6660 hc        1 MOL      0.108661
     60 H24         7.8600    5.8450    1.2310 hn        1 MOL      0.297388
     61 H25         8.5930    4.5820    2.2590 hn        1 MOL      0.297388
     62 N7          2.1720    4.6480    1.0250 n         1 MOL     -0.511373
     63 C20         0.8710    5.1450    0.6600 c3        1 MOL      0.023406
     64 C21         0.4790    4.6580   -0.7430 c         1 MOL      0.659003
     65 O12         1.2090    3.9900   -1.4560 o         1 MOL     -0.537988
     66 H26         2.2960    3.9680    1.7740 hn        1 MOL      0.348306
     67 H27         0.8590    6.2270    0.5310 h1        1 MOL      0.060822
     68 H28         0.1560    4.8210    1.4090 h1        1 MOL      0.060822
     69 N8         -0.7120    5.0700   -1.2100 n         1 MOL     -0.528644
     70 C22        -1.7760    5.8280   -0.4760 c3        1 MOL     -0.175025
     71 C23        -3.1490    5.0590   -0.4860 c         1 MOL      0.655549
     72 O13        -4.1810    5.6930   -0.4230 o         1 MOL     -0.523849
     73 C24        -1.9190    7.2110   -1.1900 c3        1 MOL      0.352828
     74 C25        -0.6420    8.0140   -0.9890 c3        1 MOL     -0.111010
     75 O14        -2.0950    7.1730   -2.6300 oh        1 MOL     -0.591157
     76 H29        -1.0070    4.6250   -2.0730 hn        1 MOL      0.309519
     77 H30        -1.4670    6.0730    0.5430 h1        1 MOL      0.125552
     78 H31        -2.7380    7.7230   -0.6760 h1        1 MOL     -0.010495
     79 H32        -2.5090    6.3300   -2.7960 ho        1 MOL      0.355992
     80 H33        -0.3880    7.9510    0.0680 hc        1 MOL      0.028087
     81 H34         0.1760    7.5990   -1.5790 hc        1 MOL      0.028087
     82 H35        -0.7320    9.0710   -1.2570 hc        1 MOL      0.028087
     83 N9         -3.0070    3.7780   -0.4550 n         1 MOL     -0.499013
     84 C26        -4.1190    2.7560   -0.2350 c3        1 MOL     -0.009444
     85 C27        -4.7060    2.8770    1.1570 c         1 MOL      0.534205
     86 O15        -3.8870    3.0550    2.1020 o         1 MOL     -0.588875
     87 C28        -3.7030    1.2290   -0.7010 c3        1 MOL      0.158355
     88 C29        -2.7600    1.1200   -1.9000 c3        1 MOL     -0.044737
     89 C30        -5.0580    0.3630   -0.8380 c3        1 MOL     -0.349031
     90 C31        -2.0180   -0.2410   -2.1570 c3        1 MOL     -0.103023
     91 H36        -2.1330    3.3530   -0.7270 hn        1 MOL      0.253899
     92 H37        -4.9120    3.1190   -0.8840 h1        1 MOL      0.050445
     93 H38        -3.1740    0.8080    0.1590 hc        1 MOL     -0.001117
     94 H39        -2.0010    1.8950   -1.8790 hc        1 MOL      0.006588
     95 H40        -3.4140    1.3650   -2.7440 hc        1 MOL      0.006588
     96 H41        -4.7420   -0.6610   -1.0290 hc        1 MOL      0.104925
     97 H42        -5.4870    0.2160    0.1520 hc        1 MOL      0.104925
     98 H43        -5.7820    0.6840   -1.5900 hc        1 MOL      0.104925
     99 H44        -1.1170   -0.2350   -1.5430 hc        1 MOL      0.036435
    100 H45        -2.6850   -1.0940   -2.0280 hc        1 MOL      0.036435
    101 H46        -1.6510   -0.2600   -3.1880 hc        1 MOL      0.036435
    102 N10        -6.0140    3.0210    1.3790 n         1 MOL     -0.479948
    103 C32        -7.1480    2.7940    0.4390 c3        1 MOL      0.506417
    104 C33        -7.9440    1.5490    0.9240 c         1 MOL      0.561366
    105 O16        -7.8370    1.1790    2.0570 o         1 MOL     -0.573675
    106 C34        -7.9950    4.0360    0.2080 c3        1 MOL     -0.442621
    107 C35        -8.6640    4.6810    1.4960 c         1 MOL      0.750431
    108 O17        -8.6370    4.1100    2.5820 o         1 MOL     -0.720452
    109 O18        -9.4510    5.6330    1.3560 o         1 MOL     -0.720452
    110 H47        -6.3990    3.2630    2.2880 hn        1 MOL      0.287274
    111 H48        -6.8220    2.4980   -0.5600 h1        1 MOL     -0.086341
    112 H49        -8.8980    3.7980   -0.3470 hc        1 MOL      0.054310
    113 H50        -7.3830    4.8140   -0.2390 hc        1 MOL      0.054310
    114 N11        -8.7200    1.0130    0.0270 n         1 MOL     -0.476886
    115 C36        -9.4610   -0.2530    0.2050 c3        1 MOL      0.291371
    116 C37        -9.6830   -0.9000   -1.1700 c         1 MOL      0.227610
    117 O19       -10.1380   -0.1130   -2.0640 o         1 MOL     -0.519902
    118 C38       -10.8370   -0.0220    0.8120 c3        1 MOL     -0.225628
    119 C39       -11.4600   -1.3180    1.2060 ca        1 MOL      0.082321
    120 C40       -12.4640   -1.9390    0.4370 ca        1 MOL     -0.148625
    121 C41       -10.9660   -1.9550    2.3630 ca        1 MOL     -0.148625
    122 C42       -13.1070   -3.1070    0.9250 ca        1 MOL     -0.117111
    123 C43       -11.5480   -3.1940    2.8560 ca        1 MOL     -0.117111
    124 C44       -12.5850   -3.7800    2.0320 ca        1 MOL     -0.155496
    125 H51        -8.7840    1.4580   -0.8870 hn        1 MOL      0.267677
    126 H52        -8.8900   -0.8980    0.8780 h1        1 MOL      0.019267
    127 H53       -11.5600    0.3920    0.1090 hc        1 MOL      0.110321
    128 H54       -10.8200    0.7160    1.6160 hc        1 MOL      0.110321
    129 H55       -12.8080   -1.5610   -0.5150 ha        1 MOL      0.126339
    130 H56       -10.1270   -1.4910    2.8610 ha        1 MOL      0.126339
    131 H57       -13.8720   -3.5810    0.3230 ha        1 MOL      0.108392
    132 H58       -11.2700   -3.7210    3.7530 ha        1 MOL      0.108392
    133 H59       -13.0570   -4.7070    2.3170 ha        1 MOL      0.101893
    134 N12        -9.7060   -2.2130   -1.3950 n         1 MOL      0.129317
    135 C45        -9.1810   -3.2990   -0.6020 c3        1 MOL     -0.122779
    136 C46        -7.6050   -3.3170   -0.5390 c         1 MOL      0.704903
    137 O20        -6.9840   -2.2640   -0.7990 o         1 MOL     -0.596475
    138 C47        -9.8380   -4.5150   -1.1510 c3        1 MOL     -0.225216
    139 C48        -9.9830   -4.2300   -2.6590 c3        1 MOL      0.045213
    140 C49       -10.4040   -2.7330   -2.5600 c3        1 MOL     -0.032980
    141 H60        -9.4280   -3.2110    0.4540 h1        1 MOL      0.049416
    142 H61        -9.2870   -5.4500   -1.0460 hc        1 MOL      0.055756
    143 H62       -10.8420   -4.6420   -0.7470 hc        1 MOL      0.055756
    144 H63        -9.0620   -4.2740   -3.2480 hc        1 MOL      0.023970
    145 H64       -10.7430   -4.8490   -3.1360 hc        1 MOL      0.023970
    146 H65       -10.0010   -2.2920   -3.4700 h1        1 MOL      0.034117
    147 H66       -11.4980   -2.6520   -2.5310 h1        1 MOL      0.034117
    148 N13        -7.0050   -4.4010   -0.1900 n         1 MOL     -0.625863
    149 C50        -5.5780   -4.5720   -0.0220 c3        1 MOL      0.179017
    150 C51        -5.1420   -5.7290    0.8360 c         1 MOL      0.406709
    151 O21        -4.3290   -6.5770    0.5930 o         1 MOL     -0.489099
    152 C52        -4.8530   -4.5390   -1.3980 c3        1 MOL     -0.106433
    153 C53        -3.3310   -4.2510   -1.2710 c3        1 MOL     -0.190627
    154 C54        -2.6070   -4.2750   -2.6340 c         1 MOL      0.742183
    155 O22        -1.9030   -5.2690   -2.8330 o         1 MOL     -0.702283
    156 O23        -2.7700   -3.4370   -3.5580 o         1 MOL     -0.702283
    157 H67        -7.5100   -5.2690   -0.0410 hn        1 MOL      0.352683
    158 H68        -5.3460   -3.7310    0.6430 h1        1 MOL      0.096790
    159 H69        -5.3260   -3.9400   -2.1870 hc        1 MOL      0.063544
    160 H70        -4.9680   -5.5790   -1.7070 hc        1 MOL      0.063544
    161 H71        -3.0030   -5.1430   -0.7470 hc        1 MOL      0.023184
    162 H72        -3.1530   -3.2640   -0.8360 hc        1 MOL      0.023184
    163 N14        -5.6090   -5.8130    2.0860 n         1 MOL     -0.383099
    164 C55        -6.5970   -5.0130    2.8300 c3        1 MOL     -0.053687
    165 H73        -6.1720   -4.0360    3.0610 h1        1 MOL      0.054582
    166 H74        -7.4930   -4.8840    2.2220 h1        1 MOL      0.054582
    167 H75        -6.8560   -5.5250    3.7570 h1        1 MOL      0.054582
    168 H76        -5.1870   -6.5540    2.6320 hn        1 MOL      0.277687
    169 Ca1         7.4100    0.6870    1.3890 Ca        1 MOL      1.754438
    170 O24         8.0170    1.4260    3.9440 oh        1 MOL     -0.828377
    171 H77         7.9720    1.0410    4.8220 ho        1 MOL      0.403499
    172 H78         8.4670    2.2610    4.0690 ho        1 MOL      0.403499
    173 O25         9.4880    2.3690    1.1420 oh        1 MOL     -0.828377
    174 H79         9.6460    3.0210    0.4620 ho        1 MOL      0.403499
    175 H80        10.2230    2.4840    1.7510 ho        1 MOL      0.403499
    176 O26         4.9890    0.2400    2.2670 oh        1 MOL     -0.828377
    177 H81         4.3520   -0.3450    1.8570 ho        1 MOL      0.403499
    178 H82         4.7190    0.3000    3.1840 ho        1 MOL      0.403499
@<TRIPOS>BOND
     1    1    2 1   
     2    1    4 1   
     3    1    5 1   
     4    1    6 1   
     5    2    3 2   
     6    2    7 1   
     7    7    8 1   
     8    7   15 1   
     9    8    9 1   
    10    8   11 1   
    11    8   16 1   
    12    9   10 2   
    13    9   19 1   
    14   11   12 1   
    15   11   17 1   
    16   11   18 1   
    17   12   13 1   
    18   12   14 1   
    19   19   20 1   
    20   19   24 1   
    21   20   21 1   
    22   20   23 1   
    23   20   25 1   
    24   21   22 2   
    25   21   29 1   
    26   23   26 1   
    27   23   27 1   
    28   23   28 1   
    29   29   30 1   
    30   29   37 1   
    31   30   31 1   
    32   30   33 1   
    33   30   38 1   
    34   31   32 2   
    35   31   41 1   
    36   33   34 1   
    37   33   39 1   
    38   33   40 1   
    39   34   35 1   
    40   34   36 1   
    41   41   42 1   
    42   41   45 1   
    43   42   43 1   
    44   42   46 1   
    45   42   47 1   
    46   43   44 2   
    47   43   48 1   
    48   48   49 1   
    49   48   56 1   
    50   49   50 1   
    51   49   52 1   
    52   49   57 1   
    53   50   51 2   
    54   50   62 1   
    55   52   53 1   
    56   52   58 1   
    57   52   59 1   
    58   53   54 1   
    59   53   55 2   
    60   54   60 1   
    61   54   61 1   
    62   62   63 1   
    63   62   66 1   
    64   63   64 1   
    65   63   67 1   
    66   63   68 1   
    67   64   65 2   
    68   64   69 1   
    69   69   70 1   
    70   69   76 1   
    71   70   71 1   
    72   70   73 1   
    73   70   77 1   
    74   71   72 2   
    75   71   83 1   
    76   73   74 1   
    77   73   75 1   
    78   73   78 1   
    79   74   80 1   
    80   74   81 1   
    81   74   82 1   
    82   75   79 1   
    83   83   84 1   
    84   83   91 1   
    85   84   85 1   
    86   84   87 1   
    87   84   92 1   
    88   85   86 2   
    89   85  102 1   
    90   87   88 1   
    91   87   89 1   
    92   87   93 1   
    93   88   90 1   
    94   88   94 1   
    95   88   95 1   
    96   89   96 1   
    97   89   97 1   
    98   89   98 1   
    99   90   99 1   
   100   90  100 1   
   101   90  101 1   
   102  102  103 1   
   103  102  110 1   
   104  103  104 1   
   105  103  106 1   
   106  103  111 1   
   107  104  105 2   
   108  104  114 1   
   109  106  107 1   
   110  106  112 1   
   111  106  113 1   
   112  107  108 1   
   113  107  109 1   
   114  114  115 1   
   115  114  125 1   
   116  115  116 1   
   117  115  118 1   
   118  115  126 1   
   119  116  117 2   
   120  116  134 1   
   121  118  119 1   
   122  118  127 1   
   123  118  128 1   
   124  119  120 ar  
   125  119  121 ar  
   126  120  122 ar  
   127  120  129 1   
   128  121  123 ar  
   129  121  130 1   
   130  122  124 ar  
   131  122  131 1   
   132  123  124 ar  
   133  123  132 1   
   134  124  133 1   
   135  134  135 1   
   136  134  140 1   
   137  135  136 1   
   138  135  138 1   
   139  135  141 1   
   140  136  137 2   
   141  136  148 1   
   142  138  139 1   
   143  138  142 1   
   144  138  143 1   
   145  139  140 1   
   146  139  144 1   
   147  139  145 1   
   148  140  146 1   
   149  140  147 1   
   150  148  149 1   
   151  148  157 1   
   152  149  150 1   
   153  149  152 1   
   154  149  158 1   
   155  150  151 2   
   156  150  163 1   
   157  152  153 1   
   158  152  159 1   
   159  152  160 1   
   160  153  154 1   
   161  153  161 1   
   162  153  162 1   
   163  154  155 1   
   164  154  156 1   
   165  163  164 1   
   166  163  168 1   
   167  164  165 1   
   168  164  166 1   
   169  164  167 1   
   170  170  171 1   
   171  170  172 1   
   172  173  174 1   
   173  173  175 1   
   174  176  177 1   
   175  176  178 1   
@<TRIPOS>SUBSTRUCTURE
     1 MOL         1 TEMP              0 ****  ****    0 ROOT
