@<TRIPOS>MOLECULE
MOL
  182   178     1     0     0
SMALL
resp


@<TRIPOS>ATOM
      1 C1          0.4950   -5.6750    5.4160 c3        1 MOL     -0.222438
      2 C2          0.5030   -4.9460    4.0560 c         1 MOL      0.648861
      3 O1         -0.4130   -5.1380    3.2410 o         1 MOL     -0.578607
      4 H1          1.2740   -6.4370    5.4230 hc        1 MOL      0.062907
      5 H2          0.6830   -4.9570    6.2140 hc        1 MOL      0.062907
      6 H3         -0.4750   -6.1470    5.5710 hc        1 MOL      0.062907
      7 N1          1.5840   -4.2300    3.7700 n         1 MOL     -0.533230
      8 C3          1.8770   -3.6810    2.4450 c3        1 MOL      0.124308
      9 C4          1.9570   -4.7540    1.3110 c         1 MOL      0.437828
     10 O2          2.2260   -5.9520    1.5560 o         1 MOL     -0.515001
     11 C5          3.1200   -2.8400    2.5710 c3        1 MOL     -0.055956
     12 C6          3.2810   -1.8050    1.4630 c         1 MOL      0.643106
     13 O3          3.4180   -0.6230    1.7630 o         1 MOL     -0.689971
     14 O4          3.4340   -2.0950    0.2720 o         1 MOL     -0.689971
     15 H4          2.2590   -4.0870    4.5060 hn        1 MOL      0.304372
     16 H5          0.9750   -3.0730    2.3240 h1        1 MOL     -0.077230
     17 H6          4.0240   -3.4520    2.5690 hc        1 MOL      0.043386
     18 H7          3.0350   -2.2970    3.5030 hc        1 MOL      0.043386
     19 N2          1.9490   -4.3380    0.0190 n         1 MOL     -0.173882
     20 C7          2.0260   -5.1400   -1.1630 c3        1 MOL     -0.011084
     21 C8          3.1710   -4.8500   -2.1880 c         1 MOL      0.512676
     22 O5          3.3400   -5.5380   -3.1560 o         1 MOL     -0.554707
     23 C9          0.6690   -4.9620   -1.8690 c3        1 MOL      0.171275
     24 C10        -0.3990   -5.8810   -1.2930 c3        1 MOL     -0.458844
     25 C11        -1.6660   -5.7700   -2.2040 c3        1 MOL      0.219679
     26 C12        -2.7070   -6.7650   -1.6970 c3        1 MOL     -0.018808
     27 N3         -4.0250   -6.5430   -2.4080 n4        1 MOL     -0.286554
     28 H8          1.7040   -3.3670   -0.1120 hn        1 MOL      0.198195
     29 H9          2.0660   -6.1970   -0.8980 h1        1 MOL      0.066513
     30 H10         0.6830   -5.0190   -2.9610 hc        1 MOL     -0.031382
     31 H11         0.3820   -3.9410   -1.6230 hc        1 MOL     -0.031382
     32 H12        -0.6110   -5.5930   -0.2570 hc        1 MOL      0.147546
     33 H13        -0.0830   -6.9000   -1.5290 hc        1 MOL      0.147546
     34 H14        -1.4920   -5.9240   -3.2690 hc        1 MOL     -0.020390
     35 H15        -2.0260   -4.7610   -1.9900 hc        1 MOL     -0.020390
     36 H16        -2.9930   -6.5170   -0.6780 hx        1 MOL      0.087644
     37 H17        -2.3340   -7.7810   -1.8020 hx        1 MOL      0.087644
     38 H18        -4.6430   -7.2980   -2.1770 hn        1 MOL      0.257119
     39 H19        -4.4550   -5.7360   -1.9750 hn        1 MOL      0.257119
     40 H20        -3.8860   -6.4250   -3.4090 hn        1 MOL      0.257119
     41 N4          3.9710   -3.8620   -1.8670 n         1 MOL     -0.255044
     42 C13         5.1170   -3.4710   -2.7250 c3        1 MOL      0.041394
     43 C14         6.3510   -3.2070   -1.9420 c         1 MOL      0.511274
     44 O6          7.4870   -3.3330   -2.4110 o         1 MOL     -0.553496
     45 C15         4.6800   -2.3130   -3.6340 c3        1 MOL     -0.423663
     46 C16         4.0370   -1.1100   -2.8950 c         1 MOL      0.817676
     47 O7          4.5890   -0.6280   -1.8650 o         1 MOL     -0.723147
     48 O8          2.9690   -0.6070   -3.2620 o         1 MOL     -0.723147
     49 H21         3.8790   -3.4780   -0.9310 hn        1 MOL      0.017618
     50 H22         5.3920   -4.3540   -3.3130 h1        1 MOL      0.106348
     51 H23         4.0140   -2.6680   -4.4310 hc        1 MOL      0.126163
     52 H24         5.6310   -2.1460   -4.1250 hc        1 MOL      0.126163
     53 N5          6.1380   -2.8160   -0.6780 n         1 MOL     -0.384539
     54 C17         7.2540   -2.5850    0.3040 c3        1 MOL     -0.064991
     55 C18         7.7460   -1.1000    0.3390 c         1 MOL      0.452177
     56 O9          8.7550   -0.8270    1.0640 o         1 MOL     -0.579905
     57 H25         5.2190   -2.4590   -0.4670 hn        1 MOL      0.373775
     58 H26         8.1260   -3.1510   -0.0290 h1        1 MOL      0.100286
     59 H27         7.0450   -2.9870    1.2960 h1        1 MOL      0.100286
     60 N6          7.0580   -0.1850   -0.2910 n         1 MOL     -0.152904
     61 C19         7.4530    1.2310   -0.4070 c3        1 MOL      0.047927
     62 C20         6.2710    2.1810    0.0270 c         1 MOL      0.512144
     63 O10         5.1100    1.7600    0.1020 o         1 MOL     -0.509261
     64 C21         7.9790    1.4720   -1.8110 c3        1 MOL     -0.217394
     65 C22         6.9170    1.3220   -2.9130 c         1 MOL      0.592846
     66 N7          7.1680    0.4020   -3.7680 n         1 MOL     -0.729385
     67 O11         5.9850    2.0510   -2.9880 o         1 MOL     -0.550753
     68 H28         6.2830   -0.5720   -0.8060 hn        1 MOL      0.116198
     69 H29         8.3190    1.4140    0.2270 h1        1 MOL      0.054153
     70 H30         8.7750    0.7770   -2.0740 hc        1 MOL      0.081935
     71 H31         8.4290    2.4550   -1.8510 hc        1 MOL      0.081935
     72 H32         7.9790   -0.1930   -3.6840 hn        1 MOL      0.366006
     73 H33         6.6800    0.4560   -4.6530 hn        1 MOL      0.366006
     74 N8          6.6500    3.4310    0.2580 n         1 MOL     -0.470200
     75 C23         5.7270    4.5850    0.1440 c3        1 MOL      0.004517
     76 C24         4.4980    4.4650    1.0160 c         1 MOL      0.608214
     77 O12         4.6780    4.3150    2.2270 o         1 MOL     -0.489125
     78 H34         7.6360    3.6100    0.2400 hn        1 MOL      0.331962
     79 H35         5.4260    4.6530   -0.9010 h1        1 MOL      0.055121
     80 H36         6.2220    5.5130    0.4350 h1        1 MOL      0.055121
     81 N9          3.2640    4.6860    0.4630 n         1 MOL     -0.631348
     82 C25         2.0610    4.5960    1.3060 c3        1 MOL      0.086571
     83 C26         1.7880    3.1070    1.7870 c         1 MOL      0.413194
     84 O13         2.4980    2.1390    1.4680 o         1 MOL     -0.402786
     85 C27         0.8590    5.2500    0.4980 c3        1 MOL     -0.280119
     86 C28         1.0120    6.7540    0.0290 ca        1 MOL      0.068983
     87 C29         1.5100    7.6750    0.8810 ca        1 MOL     -0.093030
     88 C30         0.5940    7.0360   -1.2870 ca        1 MOL     -0.093030
     89 C31         1.6300    9.0120    0.4700 ca        1 MOL     -0.324368
     90 C32         0.8960    8.3640   -1.7190 ca        1 MOL     -0.324368
     91 C33         1.3730    9.3640   -0.8510 ca        1 MOL      0.383447
     92 O14         1.6460   10.6340   -1.3490 oh        1 MOL     -0.478300
     93 H37         3.1530    4.7970   -0.5370 hn        1 MOL      0.335577
     94 H38         2.2010    5.1910    2.2000 h1        1 MOL      0.095745
     95 H39        -0.0540    5.2340    1.0860 hc        1 MOL      0.092018
     96 H40         0.7370    4.7120   -0.4370 hc        1 MOL      0.092018
     97 H41         1.7580    7.4240    1.9030 ha        1 MOL      0.132703
     98 H42         0.1380    6.2940   -1.9230 ha        1 MOL      0.132703
     99 H43         2.1090    9.7100    1.1440 ha        1 MOL      0.167152
    100 H44         0.7390    8.6350   -2.7600 ha        1 MOL      0.167152
    101 H45         1.9380   11.1680   -0.6060 ho        1 MOL      0.356372
    102 N10         0.6810    3.0120    2.5740 n         1 MOL     -0.521470
    103 C34        -0.0820    1.8480    3.0640 c3        1 MOL      0.021938
    104 C35        -0.4640    0.7220    2.0340 c         1 MOL      0.487876
    105 O15         0.2650    0.3880    1.1080 o         1 MOL     -0.399653
    106 C36         0.4530    1.3430    4.4350 c3        1 MOL      0.202032
    107 C37         1.6560    0.3900    4.2540 c3        1 MOL     -0.028958
    108 C38        -0.6520    0.5610    5.2400 c3        1 MOL     -0.438624
    109 C39         2.1460   -0.2760    5.5360 c3        1 MOL     -0.345674
    110 H46         0.2850    3.9250    2.7470 hn        1 MOL      0.322123
    111 H47        -1.0240    2.3080    3.3540 h1        1 MOL      0.057290
    112 H48         0.7370    2.2200    5.0050 hc        1 MOL      0.020209
    113 H49         2.5510    0.9250    3.9100 hc        1 MOL      0.104410
    114 H50         1.5020   -0.4330    3.5530 hc        1 MOL      0.104410
    115 H51        -1.0820   -0.3100    4.7370 hc        1 MOL      0.107271
    116 H52        -0.2990    0.2210    6.2110 hc        1 MOL      0.107271
    117 H53        -1.5460    1.1810    5.3060 hc        1 MOL      0.107271
    118 H54         2.2790    0.4560    6.3330 hc        1 MOL      0.084163
    119 H55         1.3150   -0.8620    5.9270 hc        1 MOL      0.084163
    120 H56         3.0280   -0.9030    5.4050 hc        1 MOL      0.084163
    121 N11        -1.6840    0.1170    2.2260 n         1 MOL     -0.722539
    122 C40        -2.1070   -1.1290    1.5680 c3        1 MOL      0.242102
    123 C41        -3.4700   -1.0750    0.8090 c         1 MOL      0.541415
    124 O16        -3.9360   -2.0070    0.2090 o         1 MOL     -0.533977
    125 C42        -2.1420   -2.2120    2.6270 c3        1 MOL      0.044203
    126 O17        -3.1400   -1.8570    3.5850 oh        1 MOL     -0.598055
    127 H57        -2.2560    0.4850    2.9820 hn        1 MOL      0.399976
    128 H58        -1.5660   -1.4490    0.6760 h1        1 MOL      0.057757
    129 H59        -1.1830   -2.2600    3.1200 h1        1 MOL      0.060258
    130 H60        -2.2980   -3.1430    2.0750 h1        1 MOL      0.060258
    131 H61        -3.5050   -2.6750    3.9400 ho        1 MOL      0.422658
    132 N12        -4.0680    0.1270    0.8210 n         1 MOL     -0.499065
    133 C43        -5.1800    0.4900   -0.0560 c3        1 MOL      0.161400
    134 C44        -4.8050    0.6170   -1.5730 c         1 MOL      0.587779
    135 O18        -3.6420    0.7130   -1.9540 o         1 MOL     -0.583956
    136 C45        -5.9380    1.7410    0.3900 c3        1 MOL     -0.193802
    137 H62        -3.8770    0.8030    1.5460 hn        1 MOL      0.282302
    138 H63        -5.9590   -0.2660    0.0430 h1        1 MOL      0.057161
    139 H64        -5.7290    1.9710    1.4400 hc        1 MOL      0.055685
    140 H65        -5.5730    2.5040   -0.2940 hc        1 MOL      0.055685
    141 H66        -7.0140    1.7640    0.2290 hc        1 MOL      0.055685
    142 N13        -5.7640    0.4460   -2.4410 n         1 MOL     -0.581297
    143 C46        -7.1810    0.0420   -2.4370 c3        1 MOL      0.338517
    144 C47        -8.1180    1.2460   -2.7210 c         1 MOL      0.480608
    145 O19        -7.8970    2.1500   -3.5870 o         1 MOL     -0.556188
    146 C48        -7.4100   -1.2320   -3.3110 c3        1 MOL     -0.357306
    147 H67        -5.3440    0.4240   -3.3630 hn        1 MOL      0.320017
    148 H68        -7.4980   -0.2550   -1.4380 h1        1 MOL      0.003169
    149 H69        -6.8270   -2.0480   -2.8830 hc        1 MOL      0.102718
    150 H70        -8.4530   -1.5540   -3.1870 hc        1 MOL      0.102718
    151 H71        -7.0690   -1.0590   -4.3280 hc        1 MOL      0.102718
    152 N14        -9.2560    1.3900   -2.0380 n         1 MOL     -0.472701
    153 C49        -9.8240    0.5580   -0.9570 c3        1 MOL     -0.331705
    154 C50        -9.5460    1.1200    0.4460 c         1 MOL      0.545313
    155 O20        -9.1340    0.4050    1.3600 o         1 MOL     -0.518017
    156 C51       -11.3320    0.3340   -1.2440 c3        1 MOL      0.314745
    157 C52       -11.9410   -0.7990   -0.3750 c3        1 MOL     -0.511953
    158 C53       -13.4510   -0.5060   -0.2400 c         1 MOL      0.759034
    159 O21       -14.2670   -0.8820   -1.0880 o         1 MOL     -0.667562
    160 O22       -13.8970    0.2220    0.7290 o         1 MOL     -0.667562
    161 H72        -9.8380    2.1730   -2.2990 hn        1 MOL      0.322464
    162 H73        -9.4580   -0.4660   -0.9920 h1        1 MOL      0.163636
    163 H74       -11.5100    0.0600   -2.2850 hc        1 MOL     -0.011165
    164 H75       -11.8640    1.2840   -1.2130 hc        1 MOL     -0.011165
    165 H76       -11.5650   -0.7090    0.6460 hc        1 MOL      0.119351
    166 H77       -11.7490   -1.7630   -0.8550 hc        1 MOL      0.119351
    167 N15        -9.7120    2.4270    0.4760 n         1 MOL     -0.280650
    168 C54        -9.3580    3.2420    1.6170 c3        1 MOL     -0.237997
    169 H78       -10.1870    3.9070    1.8590 h1        1 MOL      0.116303
    170 H79        -9.1470    2.5990    2.4710 h1        1 MOL      0.116303
    171 H80        -8.4740    3.8350    1.3810 h1        1 MOL      0.116303
    172 H81       -10.1800    2.7940   -0.3430 hn        1 MOL      0.282337
    173 Ca1         2.6420    0.4170   -0.6250 Ca        1 MOL      1.701784
    174 O23         3.2210    2.4320   -2.3250 oh        1 MOL     -0.831108
    175 H82         4.0260    2.1800   -2.7750 ho        1 MOL      0.411212
    176 H83         3.2280    3.3880   -2.3470 ho        1 MOL      0.411212
    177 O24         0.3730    1.3960   -1.6770 oh        1 MOL     -0.831108
    178 H84         0.2450    1.5480   -2.6170 ho        1 MOL      0.411212
    179 H85        -0.4280    1.7220   -1.2700 ho        1 MOL      0.411212
    180 O25         0.6370   -1.3540   -1.0960 oh        1 MOL     -0.831108
    181 H86        -0.3260   -1.3300   -1.0650 ho        1 MOL      0.411212
    182 H87         0.8390   -1.7170   -1.9490 ho        1 MOL      0.411212
@<TRIPOS>BOND
     1    1    2 1   
     2    1    4 1   
     3    1    5 1   
     4    1    6 1   
     5    2    3 2   
     6    2    7 1   
     7    7    8 1   
     8    7   15 1   
     9    8    9 1   
    10    8   11 1   
    11    8   16 1   
    12    9   10 2   
    13    9   19 1   
    14   11   12 1   
    15   11   17 1   
    16   11   18 1   
    17   12   13 1   
    18   12   14 1   
    19   19   20 1   
    20   19   28 1   
    21   20   21 1   
    22   20   23 1   
    23   20   29 1   
    24   21   22 2   
    25   21   41 1   
    26   23   24 1   
    27   23   30 1   
    28   23   31 1   
    29   24   25 1   
    30   24   32 1   
    31   24   33 1   
    32   25   26 1   
    33   25   34 1   
    34   25   35 1   
    35   26   27 1   
    36   26   36 1   
    37   26   37 1   
    38   27   38 1   
    39   27   39 1   
    40   27   40 1   
    41   41   42 1   
    42   41   49 1   
    43   42   43 1   
    44   42   45 1   
    45   42   50 1   
    46   43   44 2   
    47   43   53 1   
    48   45   46 1   
    49   45   51 1   
    50   45   52 1   
    51   46   47 1   
    52   46   48 1   
    53   53   54 1   
    54   53   57 1   
    55   54   55 1   
    56   54   58 1   
    57   54   59 1   
    58   55   56 2   
    59   55   60 1   
    60   60   61 1   
    61   60   68 1   
    62   61   62 1   
    63   61   64 1   
    64   61   69 1   
    65   62   63 2   
    66   62   74 1   
    67   64   65 1   
    68   64   70 1   
    69   64   71 1   
    70   65   66 1   
    71   65   67 2   
    72   66   72 1   
    73   66   73 1   
    74   74   75 1   
    75   74   78 1   
    76   75   76 1   
    77   75   79 1   
    78   75   80 1   
    79   76   77 2   
    80   76   81 1   
    81   81   82 1   
    82   81   93 1   
    83   82   83 1   
    84   82   85 1   
    85   82   94 1   
    86   83   84 2   
    87   83  102 1   
    88   85   86 1   
    89   85   95 1   
    90   85   96 1   
    91   86   87 ar  
    92   86   88 ar  
    93   87   89 ar  
    94   87   97 1   
    95   88   90 ar  
    96   88   98 1   
    97   89   91 ar  
    98   89   99 1   
    99   90   91 ar  
   100   90  100 1   
   101   91   92 1   
   102   92  101 1   
   103  102  103 1   
   104  102  110 1   
   105  103  104 1   
   106  103  106 1   
   107  103  111 1   
   108  104  105 2   
   109  104  121 1   
   110  106  107 1   
   111  106  108 1   
   112  106  112 1   
   113  107  109 1   
   114  107  113 1   
   115  107  114 1   
   116  108  115 1   
   117  108  116 1   
   118  108  117 1   
   119  109  118 1   
   120  109  119 1   
   121  109  120 1   
   122  121  122 1   
   123  121  127 1   
   124  122  123 1   
   125  122  125 1   
   126  122  128 1   
   127  123  124 2   
   128  123  132 1   
   129  125  126 1   
   130  125  129 1   
   131  125  130 1   
   132  126  131 1   
   133  132  133 1   
   134  132  137 1   
   135  133  134 1   
   136  133  136 1   
   137  133  138 1   
   138  134  135 2   
   139  134  142 1   
   140  136  139 1   
   141  136  140 1   
   142  136  141 1   
   143  142  143 1   
   144  142  147 1   
   145  143  144 1   
   146  143  146 1   
   147  143  148 1   
   148  144  145 2   
   149  144  152 1   
   150  146  149 1   
   151  146  150 1   
   152  146  151 1   
   153  152  153 1   
   154  152  161 1   
   155  153  154 1   
   156  153  156 1   
   157  153  162 1   
   158  154  155 2   
   159  154  167 1   
   160  156  157 1   
   161  156  163 1   
   162  156  164 1   
   163  157  158 1   
   164  157  165 1   
   165  157  166 1   
   166  158  159 1   
   167  158  160 1   
   168  167  168 1   
   169  167  172 1   
   170  168  169 1   
   171  168  170 1   
   172  168  171 1   
   173  174  175 1   
   174  174  176 1   
   175  177  178 1   
   176  177  179 1   
   177  180  181 1   
   178  180  182 1   
@<TRIPOS>SUBSTRUCTURE
     1 MOL         1 TEMP              0 ****  ****    0 ROOT
