@<TRIPOS>MOLECULE
MOL
  181   177     1     0     0
SMALL
resp


@<TRIPOS>ATOM
      1 C1          0.3680    6.8710   -2.1520 c3        1 MOL     -0.329735
      2 C2          1.6910    6.5440   -1.4630 c         1 MOL      0.720026
      3 O1          1.7970    6.8300   -0.2580 o         1 MOL     -0.586697
      4 H1          0.3490    7.9290   -2.4160 hc        1 MOL      0.072368
      5 H2          0.2710    6.2700   -3.0560 hc        1 MOL      0.072368
      6 H3         -0.4580    6.6500   -1.4770 hc        1 MOL      0.072368
      7 N1          2.7240    6.1390   -2.1930 n         1 MOL     -0.660428
      8 C3          3.9820    5.8410   -1.5300 c3        1 MOL      0.363592
      9 C4          3.9600    4.5140   -0.6120 c         1 MOL      0.494177
     10 O2          3.2640    3.5310   -0.9150 o         1 MOL     -0.543487
     11 C5          5.0180    5.8080   -2.7240 c3        1 MOL     -0.313863
     12 C6          6.4510    5.7430   -2.1000 c         1 MOL      0.750930
     13 O3          6.8090    6.4930   -1.1800 o         1 MOL     -0.741455
     14 O4          7.2400    4.8880   -2.5690 o         1 MOL     -0.741455
     15 H4          2.6510    6.0980   -3.2030 hn        1 MOL      0.318051
     16 H5          4.2370    6.7160   -0.9350 h1        1 MOL     -0.014337
     17 H6          5.0760    6.6710   -3.3900 hc        1 MOL      0.043278
     18 H7          4.8300    4.8950   -3.2930 hc        1 MOL      0.043278
     19 N2          4.7710    4.5700    0.4590 n         1 MOL     -0.503346
     20 C7          4.8430    3.7040    1.6240 c3        1 MOL      0.313974
     21 C8          3.4620    3.3500    2.2860 c         1 MOL      0.362828
     22 O5          2.4990    4.1020    2.1870 o         1 MOL     -0.496989
     23 C9          5.6990    4.3530    2.6700 c3        1 MOL     -0.360441
     24 H8          5.3070    5.4230    0.5560 hn        1 MOL      0.278616
     25 H9          5.4250    2.8330    1.3170 h1        1 MOL      0.115205
     26 H10         5.9020    3.8040    3.5880 hc        1 MOL      0.093320
     27 H11         6.6490    4.6610    2.2310 hc        1 MOL      0.093320
     28 H12         5.2250    5.2530    3.0400 hc        1 MOL      0.093320
     29 N3          3.3340    2.4220    3.1980 n         1 MOL     -0.438577
     30 C10         4.2730    1.3360    3.4670 c3        1 MOL      0.294784
     31 C11         4.4920    0.3750    2.3360 c         1 MOL     -0.101312
     32 O6          3.8880    0.3720    1.2340 o         1 MOL     -0.247183
     33 C12         3.7990    0.6320    4.7760 c3        1 MOL     -0.469033
     34 C13         2.3950    0.0830    4.6330 c         1 MOL      0.880518
     35 O7          1.6730    0.1960    3.6240 o         1 MOL     -0.720579
     36 O8          1.8340   -0.4500    5.6110 o         1 MOL     -0.720579
     37 H13         2.4220    2.2820    3.6010 hn        1 MOL      0.335311
     38 H14         5.2090    1.8610    3.6540 h1        1 MOL      0.032672
     39 H15         3.8290    1.3690    5.5730 hc        1 MOL      0.094245
     40 H16         4.5040   -0.1620    4.9820 hc        1 MOL      0.094245
     41 N4          5.3970   -0.5420    2.5880 n         1 MOL     -0.215456
     42 C14         5.8760   -1.3740    1.5220 c3        1 MOL     -0.034265
     43 C15         6.7830   -0.7340    0.5080 c         1 MOL      0.475655
     44 O9          7.1040    0.4850    0.6670 o         1 MOL     -0.489944
     45 H17         5.8910   -0.5200    3.4650 hn        1 MOL      0.280570
     46 H18         5.0460   -1.8360    0.9880 h1        1 MOL      0.048373
     47 H19         6.3140   -2.2690    1.9590 h1        1 MOL      0.048373
     48 N5          7.2340   -1.4220   -0.5220 n         1 MOL     -0.428500
     49 C16         6.8180   -2.7290   -1.0220 c3        1 MOL      0.127499
     50 C17         5.5030   -2.8210   -1.7400 c         1 MOL      0.585009
     51 O10         4.7030   -1.9080   -1.6340 o         1 MOL     -0.439741
     52 C18         8.0850   -3.2480   -1.8070 c3        1 MOL     -0.383492
     53 C19         9.3510   -3.4140   -1.0060 c         1 MOL      0.725142
     54 N6         10.3980   -2.9050   -1.5590 n         1 MOL     -0.777803
     55 O11         9.4320   -3.9490    0.0830 o         1 MOL     -0.562592
     56 H20         7.9510   -0.9810   -1.0790 hn        1 MOL      0.310099
     57 H21         6.6900   -3.4110   -0.1830 h1        1 MOL      0.017355
     58 H22         8.1630   -2.5660   -2.6570 hc        1 MOL      0.089144
     59 H23         7.8860   -4.2340   -2.2100 hc        1 MOL      0.089144
     60 H24        10.2970   -2.5370   -2.4890 hn        1 MOL      0.372994
     61 H25        11.2580   -3.0030   -1.0420 hn        1 MOL      0.372994
     62 N7          5.1940   -3.9780   -2.3370 n         1 MOL     -0.428074
     63 C20         4.0750   -4.1800   -3.2250 c3        1 MOL     -0.286666
     64 C21         2.6860   -4.2590   -2.6330 c         1 MOL      0.549448
     65 O12         1.6400   -4.1430   -3.3420 o         1 MOL     -0.560491
     66 H26         5.7290   -4.8130   -2.1360 hn        1 MOL      0.316286
     67 H27         4.1840   -5.1860   -3.6270 h1        1 MOL      0.156934
     68 H28         4.0450   -3.4470   -4.0300 h1        1 MOL      0.156934
     69 N8          2.5730   -4.4910   -1.3410 n         1 MOL     -0.206312
     70 C22         1.3430   -4.9650   -0.6670 c3        1 MOL     -0.186447
     71 C23         0.2180   -3.9050   -0.7270 c         1 MOL      0.508426
     72 O13         0.3920   -2.8440   -0.1180 o         1 MOL     -0.626642
     73 C24         1.5470   -5.5700    0.6730 c3        1 MOL      0.331116
     74 C25         0.1760   -5.9270    1.3860 c3        1 MOL     -0.128893
     75 O14         2.2950   -6.8410    0.5970 oh        1 MOL     -0.621482
     76 H29         3.4180   -4.7570   -0.8410 hn        1 MOL      0.146657
     77 H30         0.8990   -5.7620   -1.2580 h1        1 MOL      0.064631
     78 H31         2.0330   -4.9230    1.3970 h1        1 MOL      0.011188
     79 H32         3.0590   -6.6280    0.0510 ho        1 MOL      0.358955
     80 H33         0.4840   -6.5280    2.2490 hc        1 MOL      0.057742
     81 H34        -0.2450   -5.0070    1.7880 hc        1 MOL      0.057742
     82 H35        -0.5010   -6.4390    0.7000 hc        1 MOL      0.057742
     83 N9         -0.8770   -4.1390   -1.3660 n         1 MOL     -0.256744
     84 C26        -2.2340   -3.5400   -1.2250 c3        1 MOL     -0.571756
     85 C27        -2.7660   -3.8140    0.1880 c         1 MOL      0.787980
     86 O15        -2.9570   -4.9840    0.5390 o         1 MOL     -0.605762
     87 C28        -3.0710   -4.2510   -2.3230 c3        1 MOL      0.135745
     88 C29        -4.4400   -3.3860   -2.2720 c3        1 MOL      0.240357
     89 C30        -2.4730   -4.1710   -3.7110 c3        1 MOL     -0.277864
     90 C31        -5.5630   -3.7390   -3.3010 c3        1 MOL     -0.382918
     91 H36        -0.9400   -5.0640   -1.7490 hn        1 MOL      0.288861
     92 H37        -2.2560   -2.4840   -1.4660 h1        1 MOL      0.514360
     93 H38        -3.3050   -5.2710   -2.0280 hc        1 MOL      0.005408
     94 H39        -4.1910   -2.3360   -2.4320 hc        1 MOL     -0.062932
     95 H40        -4.8050   -3.5240   -1.2530 hc        1 MOL     -0.062932
     96 H41        -1.5720   -4.7650   -3.8670 hc        1 MOL      0.066173
     97 H42        -3.2140   -4.4420   -4.4660 hc        1 MOL      0.066173
     98 H43        -2.2040   -3.1260   -3.8790 hc        1 MOL      0.066173
     99 H44        -5.3120   -3.5030   -4.3370 hc        1 MOL      0.082171
    100 H45        -5.7750   -4.7920   -3.1350 hc        1 MOL      0.082171
    101 H46        -6.5510   -3.2920   -3.1320 hc        1 MOL      0.082171
    102 N10        -3.2160   -2.7300    0.8210 n         1 MOL     -0.326084
    103 C32        -3.8770   -2.8740    2.0950 c3        1 MOL     -0.046845
    104 C33        -4.9460   -1.8070    2.2820 c         1 MOL      0.501612
    105 O16        -5.6200   -1.7170    3.2810 o         1 MOL     -0.529267
    106 C34        -2.7920   -2.7040    3.2030 c3        1 MOL     -0.252921
    107 C35        -1.9840   -1.4370    3.1360 c         1 MOL      0.845061
    108 O17        -2.4600   -0.3790    3.4760 o         1 MOL     -0.698620
    109 O18        -0.7800   -1.5780    2.7280 o         1 MOL     -0.698620
    110 H47        -3.0050   -1.7940    0.4920 hn        1 MOL      0.073954
    111 H48        -4.3620   -3.8430    2.0390 h1        1 MOL      0.115669
    112 H49        -2.1220   -3.5660    3.1960 hc        1 MOL      0.054627
    113 H50        -3.2320   -2.6510    4.2010 hc        1 MOL      0.054627
    114 N11        -5.2540   -0.9040    1.3020 n         1 MOL     -0.325704
    115 C36        -6.2780    0.1510    1.3190 c3        1 MOL      0.169297
    116 C37        -6.0580    1.4160    0.4580 c         1 MOL      0.367759
    117 O19        -6.7310    1.5690   -0.5160 o         1 MOL     -0.474115
    118 C38        -7.5240   -0.6190    0.8910 c3        1 MOL     -0.476862
    119 C39        -8.8520    0.1010    1.1290 ca        1 MOL      0.330204
    120 C40        -9.3420    0.1810    2.4300 ca        1 MOL     -0.267404
    121 C41        -9.6760    0.5170    0.0580 ca        1 MOL     -0.267404
    122 C42       -10.6280    0.5590    2.6690 ca        1 MOL     -0.043549
    123 C43       -10.9570    0.9870    0.3170 ca        1 MOL     -0.043549
    124 C44       -11.4910    0.9020    1.6140 ca        1 MOL     -0.220193
    125 H51        -4.6260   -0.7500    0.5200 hn        1 MOL      0.207408
    126 H52        -6.4230    0.4240    2.3690 h1        1 MOL      0.039248
    127 H53        -7.5430   -1.5820    1.4210 hc        1 MOL      0.134612
    128 H54        -7.5710   -0.8960   -0.1660 hc        1 MOL      0.134612
    129 H55        -8.6610   -0.1140    3.2150 ha        1 MOL      0.149620
    130 H56        -9.2290    0.5470   -0.9210 ha        1 MOL      0.149620
    131 H57       -10.9960    0.5350    3.6800 ha        1 MOL      0.080851
    132 H58       -11.5690    1.1940   -0.5520 ha        1 MOL      0.080851
    133 H59       -12.5280    1.1250    1.8340 ha        1 MOL      0.109753
    134 N12        -5.0830    2.2260    0.7720 n         1 MOL     -0.057023
    135 C45        -4.9050    3.3490   -0.0180 c3        1 MOL     -0.028424
    136 C46        -4.5560    3.1350   -1.5330 c         1 MOL      0.168969
    137 O20        -5.0130    3.9610   -2.3310 o         1 MOL     -0.484096
    138 C47        -3.7840    4.1670    0.7340 c3        1 MOL      0.024547
    139 C48        -3.8050    3.6530    2.1590 c3        1 MOL     -0.079104
    140 C49        -4.1740    2.2310    1.9640 c3        1 MOL     -0.181966
    141 H60        -5.8560    3.8730    0.1040 h1        1 MOL      0.078913
    142 H61        -2.7730    3.9630    0.3840 hc        1 MOL      0.037455
    143 H62        -4.0050    5.2350    0.6960 hc        1 MOL      0.037455
    144 H63        -2.8840    3.7930    2.7170 hc        1 MOL      0.040382
    145 H64        -4.6200    4.1310    2.7110 hc        1 MOL      0.040382
    146 H65        -3.3040    1.6460    1.6580 h1        1 MOL      0.151988
    147 H66        -4.6160    1.7780    2.8500 h1        1 MOL      0.151988
    148 N13        -3.8940    2.0730   -1.9940 n         1 MOL      0.105058
    149 C50        -3.4800    1.8280   -3.3730 c3        1 MOL     -0.246967
    150 C51        -4.7280    1.6100   -4.2080 c         1 MOL      0.499178
    151 O21        -4.8410    2.0800   -5.3380 o         1 MOL     -0.535590
    152 C52        -2.5910    0.4700   -3.4660 c3        1 MOL      0.041628
    153 C53        -1.4130    0.2350   -2.5200 c3        1 MOL     -0.150685
    154 C54        -1.8450    0.0800   -1.0280 c         1 MOL      0.377690
    155 O22        -1.0020    0.3670   -0.0990 o         1 MOL     -0.574817
    156 O23        -3.0230   -0.2780   -0.8200 o         1 MOL     -0.574817
    157 H67        -3.6690    1.3670   -1.2930 hn        1 MOL      0.131680
    158 H68        -2.8800    2.6560   -3.7580 h1        1 MOL      0.142895
    159 H69        -2.2930    0.3450   -4.5030 hc        1 MOL      0.003784
    160 H70        -3.2660   -0.3840   -3.3870 hc        1 MOL      0.003784
    161 H71        -0.6980    1.0580   -2.6060 hc        1 MOL      0.054242
    162 H72        -0.9290   -0.7050   -2.7860 hc        1 MOL      0.054242
    163 N14        -5.8360    1.0830   -3.5420 n         1 MOL     -0.203235
    164 C55        -7.0980    0.8990   -4.2510 c3        1 MOL     -0.217116
    165 H73        -7.7580    1.7400   -4.0400 h1        1 MOL      0.086191
    166 H74        -6.9080    0.8470   -5.3230 h1        1 MOL      0.086191
    167 H75        -7.5690   -0.0260   -3.9190 h1        1 MOL      0.086191
    168 H76        -5.7650    0.8480   -2.5660 hn        1 MOL      0.229346
    169 Ca1         1.0300   -0.4400    1.2380 Ca        1 MOL      1.709288
    170 O24        -0.7740    1.4600    2.3050 oh        1 MOL     -0.860148
    171 H77        -1.2500    1.7330    1.5100 ho        1 MOL      0.415404
    172 H78        -1.3950    0.8970    2.7660 ho        1 MOL      0.415404
    173 O25         2.6990   -2.2960    2.0060 oh        1 MOL     -0.860148
    174 H79         2.6610   -2.6810    2.8860 ho        1 MOL      0.415404
    175 H80         3.4340   -2.7340    1.5850 ho        1 MOL      0.415404
    176 O26         1.2450    2.1280    0.1850 oh        1 MOL     -0.860148
    177 H81         0.7990    2.8900    0.5530 ho        1 MOL      0.415404
    178 H82         1.7920    2.4820   -0.5180 ho        1 MOL      0.415404
    179 O27         2.2730   -0.8380   -1.1630 oh        1 MOL     -0.860148
    180 H83         3.1390   -1.1370   -1.4420 ho        1 MOL      0.415404
    181 H84         1.6670   -1.3260   -1.7160 ho        1 MOL      0.415404
@<TRIPOS>BOND
     1    1    2 1   
     2    1    4 1   
     3    1    5 1   
     4    1    6 1   
     5    2    3 2   
     6    2    7 1   
     7    7    8 1   
     8    7   15 1   
     9    8    9 1   
    10    8   11 1   
    11    8   16 1   
    12    9   10 2   
    13    9   19 1   
    14   11   12 1   
    15   11   17 1   
    16   11   18 1   
    17   12   13 1   
    18   12   14 1   
    19   19   20 1   
    20   19   24 1   
    21   20   21 1   
    22   20   23 1   
    23   20   25 1   
    24   21   22 2   
    25   21   29 1   
    26   23   26 1   
    27   23   27 1   
    28   23   28 1   
    29   29   30 1   
    30   29   37 1   
    31   30   31 1   
    32   30   33 1   
    33   30   38 1   
    34   31   32 2   
    35   31   41 1   
    36   33   34 1   
    37   33   39 1   
    38   33   40 1   
    39   34   35 1   
    40   34   36 1   
    41   41   42 1   
    42   41   45 1   
    43   42   43 1   
    44   42   46 1   
    45   42   47 1   
    46   43   44 2   
    47   43   48 1   
    48   48   49 1   
    49   48   56 1   
    50   49   50 1   
    51   49   52 1   
    52   49   57 1   
    53   50   51 2   
    54   50   62 1   
    55   52   53 1   
    56   52   58 1   
    57   52   59 1   
    58   53   54 1   
    59   53   55 2   
    60   54   60 1   
    61   54   61 1   
    62   62   63 1   
    63   62   66 1   
    64   63   64 1   
    65   63   67 1   
    66   63   68 1   
    67   64   65 2   
    68   64   69 1   
    69   69   70 1   
    70   69   76 1   
    71   70   71 1   
    72   70   73 1   
    73   70   77 1   
    74   71   72 2   
    75   71   83 1   
    76   73   74 1   
    77   73   75 1   
    78   73   78 1   
    79   74   80 1   
    80   74   81 1   
    81   74   82 1   
    82   75   79 1   
    83   83   84 1   
    84   83   91 1   
    85   84   85 1   
    86   84   87 1   
    87   84   92 1   
    88   85   86 2   
    89   85  102 1   
    90   87   88 1   
    91   87   89 1   
    92   87   93 1   
    93   88   90 1   
    94   88   94 1   
    95   88   95 1   
    96   89   96 1   
    97   89   97 1   
    98   89   98 1   
    99   90   99 1   
   100   90  100 1   
   101   90  101 1   
   102  102  103 1   
   103  102  110 1   
   104  103  104 1   
   105  103  106 1   
   106  103  111 1   
   107  104  105 2   
   108  104  114 1   
   109  106  107 1   
   110  106  112 1   
   111  106  113 1   
   112  107  108 1   
   113  107  109 1   
   114  114  115 1   
   115  114  125 1   
   116  115  116 1   
   117  115  118 1   
   118  115  126 1   
   119  116  117 2   
   120  116  134 1   
   121  118  119 1   
   122  118  127 1   
   123  118  128 1   
   124  119  120 ar  
   125  119  121 ar  
   126  120  122 ar  
   127  120  129 1   
   128  121  123 ar  
   129  121  130 1   
   130  122  124 ar  
   131  122  131 1   
   132  123  124 ar  
   133  123  132 1   
   134  124  133 1   
   135  134  135 1   
   136  134  140 1   
   137  135  136 1   
   138  135  138 1   
   139  135  141 1   
   140  136  137 2   
   141  136  148 1   
   142  138  139 1   
   143  138  142 1   
   144  138  143 1   
   145  139  140 1   
   146  139  144 1   
   147  139  145 1   
   148  140  146 1   
   149  140  147 1   
   150  148  149 1   
   151  148  157 1   
   152  149  150 1   
   153  149  152 1   
   154  149  158 1   
   155  150  151 2   
   156  150  163 1   
   157  152  153 1   
   158  152  159 1   
   159  152  160 1   
   160  153  154 1   
   161  153  161 1   
   162  153  162 1   
   163  154  155 1   
   164  154  156 1   
   165  163  164 1   
   166  163  168 1   
   167  164  165 1   
   168  164  166 1   
   169  164  167 1   
   170  170  171 1   
   171  170  172 1   
   172  173  174 1   
   173  173  175 1   
   174  176  177 1   
   175  176  178 1   
   176  179  180 1   
   177  179  181 1   
@<TRIPOS>SUBSTRUCTURE
     1 MOL         1 TEMP              0 ****  ****    0 ROOT
