@<TRIPOS>MOLECULE
MOL
  198   191     1     0     0
SMALL
resp


@<TRIPOS>ATOM
      1 C1          5.5120   -4.0790   -1.2840 c3        1 MOL     -0.655529
      2 C2          4.4880   -2.9900   -1.1140 c         1 MOL      0.804986
      3 O1          4.7980   -1.8260   -1.0550 o         1 MOL     -0.670415
      4 H1          5.0220   -4.9850   -1.6400 hc        1 MOL      0.174192
      5 H2          6.2620   -3.7630   -2.0090 hc        1 MOL      0.174192
      6 H3          5.9930   -4.2790   -0.3260 hc        1 MOL      0.174192
      7 N1          3.1920   -3.2910   -0.9610 n         1 MOL     -0.423651
      8 C3          2.6010   -4.6810   -0.7450 c3        1 MOL     -0.170822
      9 C4          1.6560   -5.2450   -1.8210 c         1 MOL      0.452775
     10 O2          1.1040   -6.3600   -1.8040 o         1 MOL     -0.538184
     11 C5          1.8010   -4.5400    0.5880 c3        1 MOL     -0.121559
     12 C6          2.4200   -3.6790    1.6790 c         1 MOL      0.650284
     13 O3          3.4700   -3.9140    2.3380 o         1 MOL     -0.703456
     14 O4          1.7390   -2.6090    1.9240 o         1 MOL     -0.703456
     15 H4          2.6630   -2.4370   -0.9500 hn        1 MOL      0.216534
     16 H5          3.4100   -5.3830   -0.5440 h1        1 MOL      0.138488
     17 H6          1.6910   -5.5030    1.0830 hc        1 MOL      0.074059
     18 H7          0.8050   -4.1710    0.3770 hc        1 MOL      0.074059
     19 N2          1.3790   -4.3530   -2.8130 n         1 MOL     -0.050303
     20 C7          0.7470   -4.6730   -4.0430 c3        1 MOL     -0.256930
     21 C8         -0.8280   -4.5930   -4.1560 c         1 MOL      0.456265
     22 O5         -1.2700   -5.1220   -5.1800 o         1 MOL     -0.536387
     23 C9          1.4120   -4.0060   -5.2960 c3        1 MOL      0.148104
     24 C10         1.3940   -2.4650   -5.3460 c3        1 MOL      0.098574
     25 C11         2.9350   -4.3810   -5.3430 c3        1 MOL     -0.356139
     26 C12         0.0460   -1.8810   -5.9560 c3        1 MOL     -0.038840
     27 H8          1.7450   -3.4200   -2.7080 hn        1 MOL      0.148807
     28 H9          0.9670   -5.7290   -4.1990 h1        1 MOL      0.127799
     29 H10         0.7980   -4.2780   -6.1550 hc        1 MOL      0.018052
     30 H11         2.2160   -2.0820   -5.9510 hc        1 MOL     -0.013350
     31 H12         1.5950   -2.0750   -4.3510 hc        1 MOL     -0.013350
     32 H13         3.5230   -3.6180   -4.8180 hc        1 MOL      0.068613
     33 H14         3.0450   -5.3160   -4.7950 hc        1 MOL      0.068613
     34 H15         3.3100   -4.4670   -6.3650 hc        1 MOL      0.068613
     35 H16        -0.0260   -2.0040   -7.0400 hc        1 MOL     -0.011287
     36 H17        -0.8190   -2.2770   -5.4330 hc        1 MOL     -0.011287
     37 H18         0.1090   -0.8110   -5.7650 hc        1 MOL     -0.011287
     38 N3         -1.4780   -3.9940   -3.1620 n         1 MOL     -0.240838
     39 C13        -2.9400   -4.0560   -2.9280 c3        1 MOL      0.342788
     40 C14        -3.2570   -4.0270   -1.4370 c         1 MOL      0.166240
     41 O6         -2.4790   -3.4550   -0.6280 o         1 MOL     -0.414112
     42 C15        -3.6950   -2.9090   -3.6060 c3        1 MOL     -0.430676
     43 C16        -5.1520   -3.1770   -3.7590 c         1 MOL      0.756790
     44 O7         -5.6990   -4.2240   -3.3100 o         1 MOL     -0.727882
     45 O8         -5.7840   -2.3660   -4.4840 o         1 MOL     -0.727882
     46 H19        -0.9860   -3.7600   -2.3120 hn        1 MOL      0.188351
     47 H20        -3.2860   -5.0350   -3.2640 h1        1 MOL     -0.026919
     48 H21        -3.1920   -2.7120   -4.5580 hc        1 MOL      0.117721
     49 H22        -3.6250   -2.1030   -2.8700 hc        1 MOL      0.117721
     50 N4         -4.4350   -4.5820   -0.9640 n         1 MOL     -0.281842
     51 C17        -4.8990   -4.6350    0.4530 c3        1 MOL     -0.134770
     52 C18        -5.3260   -3.2580    0.8670 c         1 MOL      0.741623
     53 O9         -5.3190   -2.3150    0.1680 o         1 MOL     -0.495132
     54 H23        -4.8990   -5.1340   -1.6740 hn        1 MOL      0.283238
     55 H24        -4.1310   -4.9280    1.1720 h1        1 MOL      0.084613
     56 H25        -5.6820   -5.3920    0.4610 h1        1 MOL      0.084613
     57 N5         -5.5960   -3.1200    2.1920 n         1 MOL     -0.857735
     58 C19        -5.8830   -1.7950    2.7700 c3        1 MOL      0.572563
     59 C20        -7.1490   -1.8460    3.6340 c         1 MOL      0.444468
     60 O10        -7.4430   -2.8270    4.2500 o         1 MOL     -0.518672
     61 C21        -4.6410   -1.3710    3.6650 c3        1 MOL     -0.370616
     62 C22        -4.3150   -2.4050    4.7170 c         1 MOL      0.763813
     63 O11        -3.9550   -3.5660    4.3970 o         1 MOL     -0.742423
     64 O12        -4.4510   -2.0150    5.9200 o         1 MOL     -0.742423
     65 H26        -5.4980   -3.8820    2.8450 hn        1 MOL      0.372406
     66 H27        -5.9710   -0.9760    2.0600 h1        1 MOL     -0.027980
     67 H28        -4.9770   -0.3770    3.9720 hc        1 MOL      0.050441
     68 H29        -3.8620   -1.2890    2.9100 hc        1 MOL      0.050441
     69 N6         -7.8860   -0.6910    3.7730 n         1 MOL     -0.471234
     70 C23        -7.7900    0.5740    3.0490 c3        1 MOL     -0.106913
     71 C24        -8.0040    0.5020    1.4630 c         1 MOL      0.602370
     72 O13        -8.5730   -0.4810    1.0400 o         1 MOL     -0.517063
     73 H30        -8.6220   -0.7170    4.4640 hn        1 MOL      0.285035
     74 H31        -6.8470    1.0700    3.2630 h1        1 MOL      0.094569
     75 H32        -8.5530    1.2530    3.4340 h1        1 MOL      0.094569
     76 N7         -7.7870    1.5360    0.5810 n         1 MOL     -0.613788
     77 C25        -6.8070    2.6120    0.5590 c3        1 MOL      0.005754
     78 C26        -5.3310    2.1650    0.5110 c         1 MOL      0.636423
     79 O14        -5.0020    1.1200    0.9870 o         1 MOL     -0.482681
     80 C27        -7.0560    3.7070    1.5970 c3        1 MOL      0.264053
     81 C28        -8.3300    4.5010    1.4500 c3        1 MOL     -0.383323
     82 C29        -8.5020    4.9870   -0.0010 c         1 MOL      0.569065
     83 N8         -7.7710    5.9010   -0.6150 n         1 MOL     -0.724281
     84 O15        -9.4200    4.4640   -0.6590 o         1 MOL     -0.526885
     85 H33        -8.2120    1.2850   -0.3030 hn        1 MOL      0.350649
     86 H34        -6.9660    3.1200   -0.3940 h1        1 MOL      0.121142
     87 H35        -6.2560    4.4390    1.5010 hc        1 MOL     -0.095007
     88 H36        -6.8580    3.2630    2.5720 hc        1 MOL     -0.095007
     89 H37        -8.2610    5.3130    2.1710 hc        1 MOL      0.117079
     90 H38        -9.1690    3.8820    1.7700 hc        1 MOL      0.117079
     91 H39        -7.2420    6.5360   -0.0330 hn        1 MOL      0.351278
     92 H40        -7.9080    6.0840   -1.5960 hn        1 MOL      0.351278
     93 N9         -4.4630    2.9870   -0.0580 n         1 MOL     -0.543920
     94 C30        -2.9570    2.8520   -0.0770 c3        1 MOL      0.226041
     95 C31        -2.3560    2.3920   -1.4330 c         1 MOL      0.564728
     96 O16        -2.9100    2.8710   -2.4440 o         1 MOL     -0.557594
     97 C32        -2.3900    4.1670    0.5110 c3        1 MOL      0.140998
     98 C33        -0.8450    4.1570    0.5480 c3        1 MOL     -0.319798
     99 C34        -2.8590    4.5050    1.9290 c3        1 MOL     -0.319798
    100 H41        -4.9100    3.7230   -0.5970 hn        1 MOL      0.210942
    101 H42        -2.6970    2.0170    0.5720 h1        1 MOL     -0.012528
    102 H43        -2.7350    4.9400   -0.1720 hc        1 MOL      0.012424
    103 H44        -0.3870    3.3450    1.1160 hc        1 MOL      0.094076
    104 H45        -0.3880    4.0030   -0.4300 hc        1 MOL      0.094076
    105 H46        -0.3980    5.0550    0.9850 hc        1 MOL      0.094076
    106 H47        -2.2530    5.2690    2.4290 hc        1 MOL      0.094076
    107 H48        -3.8910    4.8400    1.8680 hc        1 MOL      0.094076
    108 H49        -2.8260    3.5990    2.5360 hc        1 MOL      0.094076
    109 N10        -1.3230    1.5310   -1.3840 n         1 MOL     -0.579885
    110 C35        -0.6850    0.8650   -2.5550 c3        1 MOL      0.518121
    111 C36         0.7180    1.3880   -2.9120 c         1 MOL      0.303367
    112 O17         1.3590    1.0300   -3.9360 o         1 MOL     -0.483757
    113 C37        -0.8500   -0.6460   -2.4570 c3        1 MOL     -0.449940
    114 C38         0.2240   -1.2320   -1.5140 c         1 MOL      0.378934
    115 N11        -0.1450   -1.7120   -0.3510 n         1 MOL     -0.594422
    116 O18         1.4040   -1.3020   -1.8170 o         1 MOL     -0.446261
    117 H50        -0.8500    1.3280   -0.5120 hn        1 MOL      0.307548
    118 H51        -1.2440    1.1660   -3.4320 h1        1 MOL      0.021742
    119 H52        -0.5610   -1.0760   -3.4200 hc        1 MOL      0.154047
    120 H53        -1.8390   -0.9510   -2.1000 hc        1 MOL      0.154047
    121 H54        -1.1120   -1.6710   -0.0900 hn        1 MOL      0.325339
    122 H55         0.5630   -2.1080    0.2520 hn        1 MOL      0.325339
    123 N12         1.1830    2.4030   -2.1880 n         1 MOL     -0.203798
    124 C39         2.4300    3.1590   -2.4180 c3        1 MOL     -0.017966
    125 C40         3.1570    3.6770   -1.0480 c         1 MOL      0.555721
    126 O19         2.4940    3.8070   -0.0330 o         1 MOL     -0.451856
    127 C41         2.1660    4.2840   -3.4100 c3        1 MOL     -0.004073
    128 C42         0.8780    5.0590   -2.9490 ca        1 MOL     -0.029698
    129 C43         1.0190    6.1270   -2.0870 ca        1 MOL     -0.102657
    130 C44        -0.3770    4.7370   -3.4280 ca        1 MOL     -0.102657
    131 C45        -0.1050    6.8860   -1.6290 ca        1 MOL     -0.323300
    132 C46        -1.5490    5.4160   -2.9550 ca        1 MOL     -0.323300
    133 C47        -1.3710    6.5140   -2.0680 ca        1 MOL      0.392520
    134 O20        -2.4250    7.2540   -1.7080 oh        1 MOL     -0.565028
    135 H56         0.7340    2.5100   -1.2810 hn        1 MOL      0.111950
    136 H57         3.0720    2.4570   -2.9450 h1        1 MOL      0.084041
    137 H58         1.9960    3.7060   -4.3270 hc        1 MOL      0.019213
    138 H59         2.9990    4.9600   -3.5630 hc        1 MOL      0.019213
    139 H60         2.0150    6.3450   -1.7410 ha        1 MOL      0.128713
    140 H61        -0.4950    3.9920   -4.1990 ha        1 MOL      0.128713
    141 H62         0.0200    7.7100   -0.9490 ha        1 MOL      0.170793
    142 H63        -2.5110    5.0920   -3.3380 ha        1 MOL      0.170793
    143 H64        -3.2790    6.8650   -1.8870 ho        1 MOL      0.390318
    144 N13         4.5280    3.7480   -1.0910 n         1 MOL     -0.704838
    145 C48         5.3290    4.0310    0.1390 c3        1 MOL      0.147562
    146 C49         6.5970    3.1950    0.1070 c         1 MOL      0.434602
    147 O21         7.6410    3.6110   -0.4220 o         1 MOL     -0.460294
    148 C50         5.5590    5.5860    0.3200 c3        1 MOL     -0.292317
    149 C51         6.3100    5.9920    1.5880 c3        1 MOL     -0.386516
    150 C52         5.2400    6.0850    2.7180 c         1 MOL      0.797100
    151 O22         4.5270    5.1410    3.0330 o         1 MOL     -0.746773
    152 O23         5.1570    7.2130    3.3500 o         1 MOL     -0.746773
    153 H65         4.9850    3.4690   -1.9490 hn        1 MOL      0.344794
    154 H66         4.7360    3.7160    0.9990 h1        1 MOL      0.087000
    155 H67         4.5880    6.0810    0.3760 hc        1 MOL      0.146229
    156 H68         6.2340    5.9510   -0.4620 hc        1 MOL      0.146229
    157 H69         6.8710    6.9030    1.3810 hc        1 MOL      0.074658
    158 H70         7.0860    5.2300    1.7230 hc        1 MOL      0.074658
    159 N14         6.4440    1.8400    0.3900 n         1 MOL     -0.320919
    160 C53         7.3810    0.8040    0.0240 c3        1 MOL     -0.262154
    161 C54         7.5030    0.5300   -1.4620 c         1 MOL      0.455034
    162 O24         8.5800    0.2600   -1.9500 o         1 MOL     -0.549287
    163 C55         6.9910   -0.4750    0.8720 c3        1 MOL      0.361332
    164 C56         7.2840   -0.3300    2.3640 c3        1 MOL     -0.111566
    165 C57         7.0380   -1.6270    3.0940 c         1 MOL      0.610339
    166 O25         8.0240   -2.3210    3.2840 o         1 MOL     -0.700737
    167 O26         5.9310   -1.9370    3.4750 o         1 MOL     -0.700737
    168 H71         5.6340    1.4510    0.8520 hn        1 MOL      0.271980
    169 H72         8.3660    1.0780    0.3890 h1        1 MOL      0.117960
    170 H73         7.5750   -1.2920    0.4590 hc        1 MOL     -0.019914
    171 H74         5.9430   -0.6880    0.6810 hc        1 MOL     -0.019914
    172 H75         6.6060    0.4610    2.6710 hc        1 MOL     -0.029884
    173 H76         8.3390   -0.0790    2.4700 hc        1 MOL     -0.029884
    174 N15         6.4070    0.5060   -2.2260 n         1 MOL     -0.071858
    175 C58         6.3290    0.4200   -3.7130 c3        1 MOL     -0.362589
    176 H77         5.2860    0.3380   -4.0170 h1        1 MOL      0.126009
    177 H78         6.7650    1.3160   -4.1530 h1        1 MOL      0.126009
    178 H79         6.8770   -0.4580   -4.0550 h1        1 MOL      0.126009
    179 H80         5.5380    0.8060   -1.8040 hn        1 MOL      0.195276
    180 Ca1         3.4520   -2.0100    4.0610 Ca        1 MOL      1.733413
    181 O27         3.5410   -1.8650    6.6850 oh        1 MOL     -0.828756
    182 H81         3.9290   -2.4860    7.2970 ho        1 MOL      0.414368
    183 H82         3.2560   -1.1360    7.2320 ho        1 MOL      0.414368
    184 O28         4.6850   -3.9560    5.4260 oh        1 MOL     -0.828756
    185 H83         5.6360   -4.0290    5.2910 ho        1 MOL      0.414368
    186 H84         4.4820   -4.6650    6.0380 ho        1 MOL      0.414368
    187 O29         4.2380    0.4830    4.5810 oh        1 MOL     -0.828756
    188 H85         3.9060    1.3340    4.3080 ho        1 MOL      0.414368
    189 H86         5.1940    0.5590    4.5140 ho        1 MOL      0.414368
    190 O30         1.7880   -3.8190    5.0780 oh        1 MOL     -0.828756
    191 H87         1.9280   -4.7320    4.8170 ho        1 MOL      0.414368
    192 H88         0.9140   -3.8140    5.4610 ho        1 MOL      0.414368
    193 O31         3.1360   -0.5490    1.8130 oh        1 MOL     -0.828756
    194 H89         2.3790   -1.1200    1.6820 ho        1 MOL      0.414368
    195 H90         3.2350   -0.0810    0.9840 ho        1 MOL      0.414368
    196 O32         1.2680   -0.4750    4.4250 oh        1 MOL     -0.828756
    197 H91         0.9050    0.3480    4.0830 ho        1 MOL      0.414368
    198 H92         0.9260   -0.5280    5.3130 ho        1 MOL      0.414368
@<TRIPOS>BOND
     1    1    2 1   
     2    1    4 1   
     3    1    5 1   
     4    1    6 1   
     5    2    3 2   
     6    2    7 1   
     7    7    8 1   
     8    7   15 1   
     9    8    9 1   
    10    8   11 1   
    11    8   16 1   
    12    9   10 2   
    13    9   19 1   
    14   11   12 1   
    15   11   17 1   
    16   11   18 1   
    17   12   13 1   
    18   12   14 1   
    19   19   20 1   
    20   19   27 1   
    21   20   21 1   
    22   20   23 1   
    23   20   28 1   
    24   21   22 2   
    25   21   38 1   
    26   23   24 1   
    27   23   25 1   
    28   23   29 1   
    29   24   26 1   
    30   24   30 1   
    31   24   31 1   
    32   25   32 1   
    33   25   33 1   
    34   25   34 1   
    35   26   35 1   
    36   26   36 1   
    37   26   37 1   
    38   38   39 1   
    39   38   46 1   
    40   39   40 1   
    41   39   42 1   
    42   39   47 1   
    43   40   41 2   
    44   40   50 1   
    45   42   43 1   
    46   42   48 1   
    47   42   49 1   
    48   43   44 1   
    49   43   45 1   
    50   50   51 1   
    51   50   54 1   
    52   51   52 1   
    53   51   55 1   
    54   51   56 1   
    55   52   53 2   
    56   52   57 1   
    57   57   58 1   
    58   57   65 1   
    59   58   59 1   
    60   58   61 1   
    61   58   66 1   
    62   59   60 2   
    63   59   69 1   
    64   61   62 1   
    65   61   67 1   
    66   61   68 1   
    67   62   63 1   
    68   62   64 1   
    69   69   70 1   
    70   69   73 1   
    71   70   71 1   
    72   70   74 1   
    73   70   75 1   
    74   71   72 2   
    75   71   76 1   
    76   76   77 1   
    77   76   85 1   
    78   77   78 1   
    79   77   80 1   
    80   77   86 1   
    81   78   79 2   
    82   78   93 1   
    83   80   81 1   
    84   80   87 1   
    85   80   88 1   
    86   81   82 1   
    87   81   89 1   
    88   81   90 1   
    89   82   83 1   
    90   82   84 2   
    91   83   91 1   
    92   83   92 1   
    93   93   94 1   
    94   93  100 1   
    95   94   95 1   
    96   94   97 1   
    97   94  101 1   
    98   95   96 2   
    99   95  109 1   
   100   97   98 1   
   101   97   99 1   
   102   97  102 1   
   103   98  103 1   
   104   98  104 1   
   105   98  105 1   
   106   99  106 1   
   107   99  107 1   
   108   99  108 1   
   109  109  110 1   
   110  109  117 1   
   111  110  111 1   
   112  110  113 1   
   113  110  118 1   
   114  111  112 2   
   115  111  123 1   
   116  113  114 1   
   117  113  119 1   
   118  113  120 1   
   119  114  115 1   
   120  114  116 2   
   121  115  121 1   
   122  115  122 1   
   123  123  124 1   
   124  123  135 1   
   125  124  125 1   
   126  124  127 1   
   127  124  136 1   
   128  125  126 2   
   129  125  144 1   
   130  127  128 1   
   131  127  137 1   
   132  127  138 1   
   133  128  129 ar  
   134  128  130 ar  
   135  129  131 ar  
   136  129  139 1   
   137  130  132 ar  
   138  130  140 1   
   139  131  133 ar  
   140  131  141 1   
   141  132  133 ar  
   142  132  142 1   
   143  133  134 1   
   144  134  143 1   
   145  144  145 1   
   146  144  153 1   
   147  145  146 1   
   148  145  148 1   
   149  145  154 1   
   150  146  147 2   
   151  146  159 1   
   152  148  149 1   
   153  148  155 1   
   154  148  156 1   
   155  149  150 1   
   156  149  157 1   
   157  149  158 1   
   158  150  151 1   
   159  150  152 1   
   160  159  160 1   
   161  159  168 1   
   162  160  161 1   
   163  160  163 1   
   164  160  169 1   
   165  161  162 2   
   166  161  174 1   
   167  163  164 1   
   168  163  170 1   
   169  163  171 1   
   170  164  165 1   
   171  164  172 1   
   172  164  173 1   
   173  165  166 1   
   174  165  167 1   
   175  174  175 1   
   176  174  179 1   
   177  175  176 1   
   178  175  177 1   
   179  175  178 1   
   180  181  182 1   
   181  181  183 1   
   182  184  185 1   
   183  184  186 1   
   184  187  188 1   
   185  187  189 1   
   186  190  191 1   
   187  190  192 1   
   188  193  194 1   
   189  193  195 1   
   190  196  197 1   
   191  196  198 1   
@<TRIPOS>SUBSTRUCTURE
     1 MOL         1 TEMP              0 ****  ****    0 ROOT
