@<TRIPOS>MOLECULE
MOL
  192   187     1     0     0
SMALL
resp


@<TRIPOS>ATOM
      1 C1         -9.2240    0.7820   -2.0590 c3        1 MOL     -0.584415
      2 C2         -8.1810    0.2440   -1.0250 c         1 MOL      0.898723
      3 O1         -6.9920    0.2720   -1.2390 o         1 MOL     -0.689982
      4 H1         -8.7140    1.3920   -2.8040 hc        1 MOL      0.147722
      5 H2         -9.7140   -0.0580   -2.5510 hc        1 MOL      0.147722
      6 H3         -9.9690    1.3870   -1.5430 hc        1 MOL      0.147722
      7 N1         -8.6790   -0.2040    0.1210 n         1 MOL     -0.772015
      8 C3         -7.9160   -0.5980    1.2880 c3        1 MOL      0.405151
      9 C4         -7.3960   -2.0320    1.1200 c         1 MOL      0.365446
     10 O2         -7.7740   -2.9140    1.8730 o         1 MOL     -0.533773
     11 C5         -8.7120   -0.3850    2.5920 c3        1 MOL     -0.214297
     12 C6         -9.5780    0.8580    2.6130 c         1 MOL      0.742027
     13 O3         -9.0460    1.9420    2.3310 o         1 MOL     -0.677412
     14 O4        -10.7740    0.7310    2.8970 o         1 MOL     -0.677412
     15 H4         -9.6870   -0.2520    0.2200 hn        1 MOL      0.348705
     16 H5         -6.9900   -0.0370    1.3710 h1        1 MOL     -0.004171
     17 H6         -7.9990   -0.4110    3.4090 hc        1 MOL      0.036869
     18 H7         -9.4030   -1.2300    2.6600 hc        1 MOL      0.036869
     19 N2         -6.5210   -2.3330    0.1350 n         1 MOL     -0.156056
     20 C7         -6.1260   -3.7560   -0.1390 c3        1 MOL      0.087913
     21 C8         -4.5500   -4.0610    0.1470 c         1 MOL      0.420632
     22 O5         -4.3020   -5.1620    0.6620 o         1 MOL     -0.520188
     23 C9         -6.5540   -4.0350   -1.6500 c3        1 MOL     -0.109299
     24 C10        -8.0680   -4.3640   -1.7810 c3        1 MOL      0.202100
     25 C11        -8.5350   -4.9060   -3.1290 c3        1 MOL     -0.028425
     26 C12       -10.0110   -4.5840   -3.3610 c3        1 MOL      0.193046
     27 N3        -10.7080   -5.6090   -4.2840 n4        1 MOL     -0.344102
     28 H8         -6.1960   -1.5640   -0.4310 hn        1 MOL      0.137055
     29 H9         -6.7150   -4.3990    0.5260 h1        1 MOL      0.100953
     30 H10        -6.0250   -4.9180   -1.9980 hc        1 MOL      0.009696
     31 H11        -6.2960   -3.1490   -2.2340 hc        1 MOL      0.009696
     32 H12        -8.5460   -3.3930   -1.7280 hc        1 MOL     -0.056835
     33 H13        -8.2420   -5.0660   -0.9660 hc        1 MOL     -0.056835
     34 H14        -8.4480   -5.9800   -3.2930 hc        1 MOL      0.013540
     35 H15        -7.9540   -4.3630   -3.8710 hc        1 MOL      0.013540
     36 H16       -10.1750   -3.6090   -3.8120 hx        1 MOL      0.027890
     37 H17       -10.5960   -4.4930   -2.4410 hx        1 MOL      0.027890
     38 H18       -10.1060   -5.9490   -5.0140 hn        1 MOL      0.263524
     39 H19       -11.0390   -6.4170   -3.7670 hn        1 MOL      0.263524
     40 H20       -11.5610   -5.3390   -4.7440 hn        1 MOL      0.263524
     41 N4         -3.5770   -3.1770   -0.0930 n         1 MOL     -0.218125
     42 C13        -3.5970   -1.8280   -0.6700 c3        1 MOL     -0.129300
     43 C14        -3.8130   -0.7400    0.3680 c         1 MOL      0.284312
     44 O6         -3.6960   -1.0110    1.6000 o         1 MOL     -0.416588
     45 C15        -2.2330   -1.6490   -1.4370 c3        1 MOL     -0.289458
     46 C16        -0.9700   -2.0320   -0.5710 c         1 MOL      0.745115
     47 O7         -0.6360   -1.3090    0.4580 o         1 MOL     -0.638804
     48 O8         -0.3570   -3.1030   -0.8460 o         1 MOL     -0.638804
     49 H21        -2.6800   -3.6330   -0.1980 hn        1 MOL      0.253001
     50 H22        -4.4230   -1.6840   -1.3600 h1        1 MOL      0.117428
     51 H23        -2.2270   -0.5950   -1.7410 hc        1 MOL      0.083405
     52 H24        -2.3330   -2.2090   -2.3730 hc        1 MOL      0.083405
     53 N5         -4.0330    0.5160   -0.1340 n         1 MOL     -0.261096
     54 C17        -4.2700    1.6860    0.5970 c3        1 MOL     -0.070615
     55 C18        -3.0070    2.5220    0.8980 c         1 MOL      0.649280
     56 O9         -1.8300    2.1000    0.7370 o         1 MOL     -0.720286
     57 H25        -4.3000    0.6100   -1.1080 hn        1 MOL      0.308181
     58 H26        -4.7430    1.4750    1.5520 h1        1 MOL      0.093268
     59 H27        -4.9850    2.3480    0.1040 h1        1 MOL      0.093268
     60 N6         -3.2640    3.6880    1.5180 n         1 MOL     -0.568987
     61 C19        -2.2570    4.7210    1.8370 c3        1 MOL      0.522561
     62 C20        -2.6370    6.1230    1.4330 c         1 MOL      0.473952
     63 O10        -3.7910    6.3990    1.3910 o         1 MOL     -0.528919
     64 C21        -1.8750    4.6060    3.3370 c3        1 MOL     -0.532773
     65 C22        -1.2540    3.2670    3.7370 c         1 MOL      0.759628
     66 O11        -0.3380    2.8580    3.0140 o         1 MOL     -0.686085
     67 O12        -1.8390    2.4780    4.5530 o         1 MOL     -0.686085
     68 H28        -4.2170    3.9270    1.7440 hn        1 MOL      0.303025
     69 H29        -1.4110    4.4240    1.2120 h1        1 MOL     -0.024638
     70 H30        -2.7710    4.7640    3.9380 hc        1 MOL      0.118782
     71 H31        -1.2290    5.4130    3.6960 hc        1 MOL      0.118782
     72 N7         -1.6730    7.0270    1.1860 n         1 MOL     -0.508657
     73 C23        -0.1830    6.9370    1.3230 c3        1 MOL     -0.010235
     74 C24         0.6020    6.3890    0.0950 c         1 MOL      0.625184
     75 O13         0.0690    6.4740   -1.0050 o         1 MOL     -0.518992
     76 H32        -1.9470    7.9660    0.9580 hn        1 MOL      0.326451
     77 H33         0.0840    6.4470    2.2640 h1        1 MOL      0.053919
     78 H34         0.2420    7.9390    1.4110 h1        1 MOL      0.053919
     79 N8          1.7640    5.8030    0.3400 n         1 MOL     -0.657008
     80 C25         2.3230    4.8910   -0.6400 c3        1 MOL      0.033858
     81 C26         1.5360    3.5810   -0.8790 c         1 MOL      0.806306
     82 O14         1.0710    2.8490    0.0210 o         1 MOL     -0.684110
     83 C27         3.7740    4.6090   -0.2940 c3        1 MOL      0.205229
     84 C28         4.5260    3.8060   -1.4030 c3        1 MOL     -0.162265
     85 O15         4.0230    3.9850    0.9410 oh        1 MOL     -0.637342
     86 H35         2.0490    5.7040    1.3080 hn        1 MOL      0.360528
     87 H36         2.2320    5.4860   -1.5520 h1        1 MOL      0.076121
     88 H37         4.4320    5.4700   -0.1680 h1        1 MOL      0.044640
     89 H38         4.8100    4.3840    1.3300 ho        1 MOL      0.430880
     90 H39         3.8780    2.9930   -1.7330 hc        1 MOL      0.037078
     91 H40         4.7280    4.6300   -2.1000 hc        1 MOL      0.037078
     92 H41         5.5330    3.5860   -1.0580 hc        1 MOL      0.037078
     93 N9          1.4320    3.2370   -2.1290 n         1 MOL     -0.319552
     94 C29         0.7610    2.1320   -2.7600 c3        1 MOL     -0.072790
     95 C30         1.2680    0.8120   -2.3270 c         1 MOL      0.696739
     96 O16         0.9120    0.3470   -1.2290 o         1 MOL     -0.638333
     97 C31        -0.7470    2.3350   -2.7750 c3        1 MOL      0.046503
     98 C32        -1.0560    3.7500   -3.2590 c3        1 MOL      0.078168
     99 C33        -1.4460    1.2590   -3.6440 c3        1 MOL     -0.716397
    100 C34        -2.5490    4.0290   -3.0120 c3        1 MOL      0.021883
    101 H42         1.9020    3.9230   -2.6970 hn        1 MOL      0.183778
    102 H43         1.0230    2.1970   -3.8170 h1        1 MOL      0.046565
    103 H44        -1.1480    2.1730   -1.7710 hc        1 MOL      0.072292
    104 H45        -0.9170    3.7830   -4.3370 hc        1 MOL     -0.019710
    105 H46        -0.4650    4.5780   -2.8840 hc        1 MOL     -0.019710
    106 H47        -1.3030    1.5210   -4.7000 hc        1 MOL      0.201414
    107 H48        -0.9700    0.2840   -3.5820 hc        1 MOL      0.201414
    108 H49        -2.4720    1.1030   -3.3280 hc        1 MOL      0.201414
    109 H50        -2.7990    5.0000   -3.4310 hc        1 MOL     -0.009653
    110 H51        -3.1150    3.2590   -3.5300 hc        1 MOL     -0.009653
    111 H52        -2.7950    4.0420   -1.9560 hc        1 MOL     -0.009653
    112 N10         2.0710    0.2210   -3.2170 n         1 MOL     -0.433061
    113 C35         2.5960   -1.1320   -3.0100 c3        1 MOL     -0.133507
    114 C36         4.1280   -1.2730   -2.9660 c         1 MOL      0.440924
    115 O17         4.7090   -2.4540   -2.9420 o         1 MOL     -0.545560
    116 C37         1.9990   -2.1680   -3.9510 c3        1 MOL      0.539798
    117 C38         2.2320   -1.8330   -5.3890 c3        1 MOL     -0.314341
    118 O18         0.5810   -2.3010   -3.7030 oh        1 MOL     -0.653233
    119 H53         2.5020    0.8010   -3.9180 hn        1 MOL      0.255733
    120 H54         2.1950   -1.4370   -2.0390 h1        1 MOL      0.133742
    121 H55         2.3880   -3.1440   -3.6840 h1        1 MOL     -0.006404
    122 H56         0.3790   -2.7460   -2.8780 ho        1 MOL      0.353688
    123 H57         2.8990   -0.9860   -5.4960 hc        1 MOL      0.067692
    124 H58         2.8200   -2.6620   -5.7840 hc        1 MOL      0.067692
    125 H59         1.2910   -1.6930   -5.9210 hc        1 MOL      0.067692
    126 N11         4.8260   -0.1140   -3.0230 n         1 MOL     -0.212166
    127 C39         6.2880   -0.0370   -2.9140 c3        1 MOL     -0.068807
    128 C40         6.6100   -0.2510   -1.4300 c         1 MOL      0.514061
    129 O19         6.7870    0.6540   -0.6340 o         1 MOL     -0.533097
    130 C41         6.9420    1.3010   -3.4560 c3        1 MOL      0.519417
    131 C42         8.3680    0.9940   -3.7780 c3        1 MOL     -0.501975
    132 O20         6.3030    1.7190   -4.5980 oh        1 MOL     -0.698265
    133 H60         4.3480    0.7760   -3.0130 hn        1 MOL      0.243553
    134 H61         6.7770   -0.8410   -3.4730 h1        1 MOL      0.068971
    135 H62         6.8130    2.1550   -2.7790 h1        1 MOL     -0.043414
    136 H63         6.8640    2.3260   -5.0800 ho        1 MOL      0.428810
    137 H64         8.9590    0.5660   -2.9670 hc        1 MOL      0.120091
    138 H65         8.3240    0.1920   -4.5100 hc        1 MOL      0.120091
    139 H66         8.8450    1.8720   -4.2050 hc        1 MOL      0.120091
    140 N12         6.5870   -1.5710   -1.1340 n         1 MOL     -0.550026
    141 C43         6.6380   -2.1300    0.1750 c3        1 MOL      0.216540
    142 C44         5.4930   -1.7330    1.0790 c         1 MOL      0.664998
    143 O21         5.0280   -0.6070    1.1650 o         1 MOL     -0.558878
    144 C45         8.0630   -1.9010    0.8270 c3        1 MOL     -0.567430
    145 C46         9.2760   -2.1280   -0.1410 c3        1 MOL      0.322766
    146 C47        10.5170   -2.0900    0.7420 c3        1 MOL     -0.099662
    147 C48        11.7250   -2.1950   -0.2520 c3        1 MOL      0.083499
    148 N13        13.0280   -2.2240    0.4260 n4        1 MOL     -0.159312
    149 H67         6.3820   -2.1200   -1.9490 hn        1 MOL      0.302175
    150 H68         6.6840   -3.2150    0.1120 h1        1 MOL      0.034468
    151 H69         8.2920   -2.4350    1.7500 hc        1 MOL      0.173646
    152 H70         8.1420   -0.8450    1.0680 hc        1 MOL      0.173646
    153 H71         9.3610   -1.3450   -0.8940 hc        1 MOL     -0.026088
    154 H72         9.2030   -3.0630   -0.6990 hc        1 MOL     -0.026088
    155 H73        10.5260   -2.9770    1.3700 hc        1 MOL      0.043829
    156 H74        10.5300   -1.1120    1.2320 hc        1 MOL      0.043829
    157 H75        11.6930   -1.3080   -0.8810 hx        1 MOL      0.034657
    158 H76        11.5590   -3.0910   -0.8480 hx        1 MOL      0.034657
    159 H77        13.0030   -3.0180    1.0570 hn        1 MOL      0.209601
    160 H78        13.7620   -2.4700   -0.2340 hn        1 MOL      0.209601
    161 H79        13.3990   -1.4030    0.8880 hn        1 MOL      0.209601
    162 N14         4.9990   -2.7480    1.7760 n         1 MOL     -0.741768
    163 C49         3.8480   -2.6490    2.7200 c3        1 MOL      0.573554
    164 C50         2.5120   -2.4120    1.9200 c         1 MOL      0.341899
    165 O22         1.9150   -1.3860    2.1750 o         1 MOL     -0.620991
    166 C51         3.8610   -3.8930    3.6530 c3        1 MOL     -0.022548
    167 C52         5.0510   -3.7490    4.5410 c3        1 MOL     -0.153710
    168 C53         4.9480   -4.7920    5.6310 c         1 MOL      0.719609
    169 O23         4.9080   -4.4480    6.8140 o         1 MOL     -0.640592
    170 O24         4.9930   -5.9790    5.3010 o         1 MOL     -0.640592
    171 H80         5.3240   -3.6990    1.6510 hn        1 MOL      0.370340
    172 H81         3.9360   -1.7660    3.3500 h1        1 MOL     -0.032731
    173 H82         3.9490   -4.8230    3.0870 hc        1 MOL      0.013177
    174 H83         2.9490   -3.8140    4.2560 hc        1 MOL      0.013177
    175 H84         5.0630   -2.7450    4.9550 hc        1 MOL     -0.018188
    176 H85         5.9470   -3.8900    3.9300 hc        1 MOL     -0.018188
    177 N15         1.9630   -3.2880    1.0430 n         1 MOL     -0.345027
    178 C54         2.4950   -4.5540    0.5790 c3        1 MOL     -0.071600
    179 H86         1.8640   -5.3670    0.9370 h1        1 MOL      0.047704
    180 H87         2.5140   -4.5630   -0.5110 h1        1 MOL      0.047704
    181 H88         3.5080   -4.6860    0.9610 h1        1 MOL      0.047704
    182 H89         1.1190   -2.9220    0.6130 hn        1 MOL      0.331055
    183 Ca1         0.4520    0.8670    1.5290 Ca        1 MOL      1.843190
    184 O25        -1.5070    0.0190    3.1630 oh        1 MOL     -0.881371
    185 H90        -2.3310   -0.0770    2.7020 ho        1 MOL      0.424203
    186 H91        -1.6380    0.7750    3.7460 ho        1 MOL      0.424203
    187 O26         3.2020    1.3070    1.1420 oh        1 MOL     -0.881371
    188 H92         3.7390    2.0630    0.8880 ho        1 MOL      0.424203
    189 H93         3.8340    0.5860    1.2130 ho        1 MOL      0.424203
    190 O27         1.8930    1.1040    3.8550 oh        1 MOL     -0.881371
    191 H94         2.8210    0.8790    3.7570 ho        1 MOL      0.424203
    192 H95         1.7030    0.9050    4.7760 ho        1 MOL      0.424203
@<TRIPOS>BOND
     1    1    2 1   
     2    1    4 1   
     3    1    5 1   
     4    1    6 1   
     5    2    3 2   
     6    2    7 1   
     7    7    8 1   
     8    7   15 1   
     9    8    9 1   
    10    8   11 1   
    11    8   16 1   
    12    9   10 2   
    13    9   19 1   
    14   11   12 1   
    15   11   17 1   
    16   11   18 1   
    17   12   13 1   
    18   12   14 1   
    19   19   20 1   
    20   19   28 1   
    21   20   21 1   
    22   20   23 1   
    23   20   29 1   
    24   21   22 2   
    25   21   41 1   
    26   23   24 1   
    27   23   30 1   
    28   23   31 1   
    29   24   25 1   
    30   24   32 1   
    31   24   33 1   
    32   25   26 1   
    33   25   34 1   
    34   25   35 1   
    35   26   27 1   
    36   26   36 1   
    37   26   37 1   
    38   27   38 1   
    39   27   39 1   
    40   27   40 1   
    41   41   42 1   
    42   41   49 1   
    43   42   43 1   
    44   42   45 1   
    45   42   50 1   
    46   43   44 2   
    47   43   53 1   
    48   45   46 1   
    49   45   51 1   
    50   45   52 1   
    51   46   47 1   
    52   46   48 1   
    53   53   54 1   
    54   53   57 1   
    55   54   55 1   
    56   54   58 1   
    57   54   59 1   
    58   55   56 2   
    59   55   60 1   
    60   60   61 1   
    61   60   68 1   
    62   61   62 1   
    63   61   64 1   
    64   61   69 1   
    65   62   63 2   
    66   62   72 1   
    67   64   65 1   
    68   64   70 1   
    69   64   71 1   
    70   65   66 1   
    71   65   67 1   
    72   72   73 1   
    73   72   76 1   
    74   73   74 1   
    75   73   77 1   
    76   73   78 1   
    77   74   75 2   
    78   74   79 1   
    79   79   80 1   
    80   79   86 1   
    81   80   81 1   
    82   80   83 1   
    83   80   87 1   
    84   81   82 2   
    85   81   93 1   
    86   83   84 1   
    87   83   85 1   
    88   83   88 1   
    89   84   90 1   
    90   84   91 1   
    91   84   92 1   
    92   85   89 1   
    93   93   94 1   
    94   93  101 1   
    95   94   95 1   
    96   94   97 1   
    97   94  102 1   
    98   95   96 2   
    99   95  112 1   
   100   97   98 1   
   101   97   99 1   
   102   97  103 1   
   103   98  100 1   
   104   98  104 1   
   105   98  105 1   
   106   99  106 1   
   107   99  107 1   
   108   99  108 1   
   109  100  109 1   
   110  100  110 1   
   111  100  111 1   
   112  112  113 1   
   113  112  119 1   
   114  113  114 1   
   115  113  116 1   
   116  113  120 1   
   117  114  115 2   
   118  114  126 1   
   119  116  117 1   
   120  116  118 1   
   121  116  121 1   
   122  117  123 1   
   123  117  124 1   
   124  117  125 1   
   125  118  122 1   
   126  126  127 1   
   127  126  133 1   
   128  127  128 1   
   129  127  130 1   
   130  127  134 1   
   131  128  129 2   
   132  128  140 1   
   133  130  131 1   
   134  130  132 1   
   135  130  135 1   
   136  131  137 1   
   137  131  138 1   
   138  131  139 1   
   139  132  136 1   
   140  140  141 1   
   141  140  149 1   
   142  141  142 1   
   143  141  144 1   
   144  141  150 1   
   145  142  143 2   
   146  142  162 1   
   147  144  145 1   
   148  144  151 1   
   149  144  152 1   
   150  145  146 1   
   151  145  153 1   
   152  145  154 1   
   153  146  147 1   
   154  146  155 1   
   155  146  156 1   
   156  147  148 1   
   157  147  157 1   
   158  147  158 1   
   159  148  159 1   
   160  148  160 1   
   161  148  161 1   
   162  162  163 1   
   163  162  171 1   
   164  163  164 1   
   165  163  166 1   
   166  163  172 1   
   167  164  165 2   
   168  164  177 1   
   169  166  167 1   
   170  166  173 1   
   171  166  174 1   
   172  167  168 1   
   173  167  175 1   
   174  167  176 1   
   175  168  169 1   
   176  168  170 1   
   177  177  178 1   
   178  177  182 1   
   179  178  179 1   
   180  178  180 1   
   181  178  181 1   
   182  184  185 1   
   183  184  186 1   
   184  187  188 1   
   185  187  189 1   
   186  190  191 1   
   187  190  192 1   
@<TRIPOS>SUBSTRUCTURE
     1 MOL         1 TEMP              0 ****  ****    0 ROOT
