@<TRIPOS>MOLECULE
MOL
  178   175     1     0     0
SMALL
resp


@<TRIPOS>ATOM
      1 C1          1.5090   -6.9130    3.6770 c3        1 MOL     -0.470616
      2 C2          2.6060   -6.5100    2.7140 c         1 MOL      0.684409
      3 O1          2.7190   -7.0490    1.6320 o         1 MOL     -0.561220
      4 H1          1.1370   -6.0280    4.1940 hc        1 MOL      0.120164
      5 H2          0.6940   -7.3800    3.1250 hc        1 MOL      0.120164
      6 H3          1.9060   -7.6190    4.4060 hc        1 MOL      0.120164
      7 N1          3.5670   -5.6940    3.1770 n         1 MOL     -0.520586
      8 C3          4.8160   -5.3060    2.4080 c3        1 MOL      0.101168
      9 C4          4.4130   -4.6780    1.1000 c         1 MOL      0.316821
     10 O2          3.6760   -3.7140    1.0650 o         1 MOL     -0.469969
     11 C5          5.6580   -4.3340    3.2230 c3        1 MOL     -0.313758
     12 C6          7.0220   -3.9620    2.5860 c         1 MOL      0.728121
     13 O3          7.2320   -2.8490    2.0170 o         1 MOL     -0.718860
     14 O4          7.9090   -4.8330    2.6270 o         1 MOL     -0.718860
     15 H4          3.3710   -5.0980    3.9650 hn        1 MOL      0.291151
     16 H5          5.3580   -6.2280    2.2170 h1        1 MOL      0.085080
     17 H6          5.7960   -4.8060    4.1930 hc        1 MOL      0.066913
     18 H7          5.1430   -3.3990    3.4450 hc        1 MOL      0.066913
     19 N2          4.9340   -5.1800   -0.0010 n         1 MOL     -0.322097
     20 C7          4.9990   -4.4880   -1.2370 c3        1 MOL      0.205526
     21 C8          3.7030   -4.6030   -2.1290 c         1 MOL      0.586951
     22 O5          3.2440   -5.7550   -2.2370 o         1 MOL     -0.597008
     23 C9          6.2230   -4.7660   -2.0170 c3        1 MOL     -0.366145
     24 H8          5.1610   -6.1630   -0.0580 hn        1 MOL      0.273558
     25 H9          4.9970   -3.4600   -0.8630 h1        1 MOL      0.128901
     26 H10         6.3520   -5.8450   -2.1890 hc        1 MOL      0.092475
     27 H11         6.1500   -4.2670   -2.9780 hc        1 MOL      0.092475
     28 H12         7.1140   -4.3920   -1.5060 hc        1 MOL      0.092475
     29 N3          3.1350   -3.6320   -2.7910 n         1 MOL     -0.542713
     30 C10         3.8520   -2.4140   -3.2490 c3        1 MOL      0.155190
     31 C11         3.8570   -1.2290   -2.2610 c         1 MOL      0.325803
     32 O6          2.9410   -1.0340   -1.4810 o         1 MOL     -0.481981
     33 C12         3.4300   -1.9310   -4.6530 c3        1 MOL     -0.027737
     34 C13         1.9070   -1.7280   -4.7950 c         1 MOL      0.635861
     35 O7          1.2580   -1.3810   -3.7440 o         1 MOL     -0.676362
     36 O8          1.3490   -1.9960   -5.8450 o         1 MOL     -0.676362
     37 H13         2.2580   -3.9110   -3.2210 hn        1 MOL      0.312476
     38 H14         4.9220   -2.6120   -3.2940 h1        1 MOL      0.011446
     39 H15         3.7840   -2.7310   -5.2990 hc        1 MOL     -0.006118
     40 H16         4.0150   -1.0560   -4.9130 hc        1 MOL     -0.006118
     41 N4          4.9050   -0.3450   -2.4870 n         1 MOL     -0.569467
     42 C14         4.8460    0.9580   -1.8420 c3        1 MOL      0.520265
     43 C15         6.2030    1.5170   -1.4960 c         1 MOL      0.257893
     44 O9          7.1450    0.7800   -1.2490 o         1 MOL     -0.481640
     45 H17         5.6320   -0.6470   -3.1150 hn        1 MOL      0.307508
     46 H18         4.2300    0.9740   -0.9430 h1        1 MOL     -0.013314
     47 H19         4.3460    1.6410   -2.5350 h1        1 MOL     -0.013314
     48 N5          6.3970    2.7760   -1.1240 n         1 MOL     -0.343295
     49 C16         5.4560    3.9400   -1.0520 c3        1 MOL      0.025955
     50 C17         5.8000    4.7210    0.2500 c         1 MOL      0.697551
     51 O10         6.1190    5.8620    0.1620 o         1 MOL     -0.527888
     52 C18         5.4470    4.7920   -2.4310 c3        1 MOL     -0.280437
     53 C19         4.1540    5.4670   -2.7780 c         1 MOL      0.711158
     54 N6          3.1130    4.8050   -3.1910 n         1 MOL     -0.772440
     55 O11         4.0700    6.6870   -2.6630 o         1 MOL     -0.600264
     56 H20         7.3140    2.8300   -0.7080 hn        1 MOL      0.258929
     57 H21         4.4950    3.4130   -1.0070 h1        1 MOL     -0.012885
     58 H22         5.5970    4.1760   -3.3250 hc        1 MOL      0.083132
     59 H23         6.2850    5.4670   -2.2970 hc        1 MOL      0.083132
     60 H24         3.2330    3.8620   -3.5210 hn        1 MOL      0.367468
     61 H25         2.2170    5.2790   -3.1530 hn        1 MOL      0.367468
     62 N7          5.7360    4.0800    1.3750 n         1 MOL     -0.545623
     63 C20         5.5760    4.6920    2.7160 c3        1 MOL      0.085066
     64 C21         4.1680    5.1550    3.0900 c         1 MOL      0.449169
     65 O12         3.9740    6.1300    3.7960 o         1 MOL     -0.535467
     66 H26         5.5840    3.0870    1.3200 hn        1 MOL      0.326375
     67 H27         6.1510    5.6180    2.7780 h1        1 MOL      0.064617
     68 H28         6.0350    4.1100    3.5120 h1        1 MOL      0.064617
     69 N8          3.1220    4.6060    2.4740 n         1 MOL     -0.339121
     70 C22         1.7140    5.1080    2.3690 c3        1 MOL     -0.064508
     71 C23         0.7830    3.8990    2.3310 c         1 MOL      0.536997
     72 O13         1.1090    2.7630    1.8590 o         1 MOL     -0.553881
     73 C24         1.5580    5.9410    1.1190 c3        1 MOL      0.335804
     74 C25         2.3970    7.2490    1.1380 c3        1 MOL     -0.620479
     75 O14         1.9020    5.1710   -0.0010 oh        1 MOL     -0.560350
     76 H29         3.3010    3.7780    1.9130 hn        1 MOL      0.238508
     77 H30         1.4780    5.7070    3.2520 h1        1 MOL      0.119762
     78 H31         0.5180    6.2120    0.9750 h1        1 MOL      0.016356
     79 H32         1.8680    5.7000   -0.8000 ho        1 MOL      0.393531
     80 H33         2.1880    7.7450    0.1910 hc        1 MOL      0.172124
     81 H34         1.9060    7.8780    1.8870 hc        1 MOL      0.172124
     82 H35         3.4560    7.1410    1.3150 hc        1 MOL      0.172124
     83 N9         -0.4480    4.1260    2.8130 n         1 MOL     -0.439836
     84 C26        -1.5800    3.3030    2.3520 c3        1 MOL     -0.013857
     85 C27        -1.9230    3.6820    0.8840 c         1 MOL      0.638356
     86 O15        -1.9910    4.8940    0.6680 o         1 MOL     -0.593406
     87 C28        -2.6630    3.5060    3.4060 c3        1 MOL      0.135602
     88 C29        -3.9890    2.7600    3.0870 c3        1 MOL      0.017860
     89 C30        -2.3250    3.3610    4.8880 c3        1 MOL     -0.183998
     90 C31        -5.2200    3.2470    3.8070 c3        1 MOL     -0.196499
     91 H36        -0.7120    5.0480    3.1150 hn        1 MOL      0.255074
     92 H37        -1.2620    2.2650    2.2390 h1        1 MOL      0.076695
     93 H38        -2.9120    4.5570    3.2850 hc        1 MOL     -0.007865
     94 H39        -3.8250    1.7130    3.3680 hc        1 MOL     -0.000565
     95 H40        -4.2890    2.7620    2.0410 hc        1 MOL     -0.000565
     96 H41        -1.4260    3.8870    5.1920 hc        1 MOL      0.044807
     97 H42        -3.1120    3.6910    5.5470 hc        1 MOL      0.044807
     98 H43        -2.0880    2.3310    5.1580 hc        1 MOL      0.044807
     99 H44        -5.2660    3.1100    4.8940 hc        1 MOL      0.045249
    100 H45        -5.4030    4.3040    3.5990 hc        1 MOL      0.045249
    101 H46        -6.0950    2.6930    3.4840 hc        1 MOL      0.045249
    102 N10        -2.2650    2.7090    0.0070 n         1 MOL     -0.512273
    103 C32        -2.6320    2.8990   -1.4720 c3        1 MOL      0.009601
    104 C33        -3.7920    2.0450   -1.9400 c         1 MOL      0.444044
    105 O16        -4.0650    2.0160   -3.1630 o         1 MOL     -0.530727
    106 C34        -1.4320    2.6320   -2.3430 c3        1 MOL     -0.122290
    107 C35        -0.7160    1.3110   -2.1040 c         1 MOL      0.986159
    108 O17        -1.4000    0.3510   -2.3300 o         1 MOL     -0.876941
    109 O18         0.4630    1.1960   -1.7560 o         1 MOL     -0.876941
    110 H47        -2.2090    1.8290    0.5010 hn        1 MOL      0.348834
    111 H48        -2.8930    3.9350   -1.6860 h1        1 MOL      0.100532
    112 H49        -0.6430    3.3290   -2.0850 hc        1 MOL      0.021261
    113 H50        -1.5710    2.6550   -3.4230 hc        1 MOL      0.021261
    114 N11        -4.3920    1.3050   -1.0320 n         1 MOL     -0.425999
    115 C36        -5.6670    0.5890   -1.3770 c3        1 MOL      0.383524
    116 C37        -5.7480   -0.7270   -0.6250 c         1 MOL      0.142075
    117 O19        -6.3810   -0.6940    0.4460 o         1 MOL     -0.411281
    118 C38        -6.7460    1.6150   -1.1170 c3        1 MOL     -0.254739
    119 C39        -8.0240    1.3240   -1.8790 ca        1 MOL      0.109312
    120 C40        -8.8460    0.1860   -1.4740 ca        1 MOL     -0.138065
    121 C41        -8.3990    2.1220   -2.9890 ca        1 MOL     -0.138065
    122 C42       -10.0790   -0.0250   -2.2320 ca        1 MOL     -0.153879
    123 C43        -9.6140    1.9660   -3.6870 ca        1 MOL     -0.153879
    124 C44       -10.4460    0.9130   -3.2540 ca        1 MOL     -0.132528
    125 H51        -4.0020    1.2410   -0.1040 hn        1 MOL      0.318593
    126 H52        -5.7000    0.3870   -2.4490 h1        1 MOL     -0.003576
    127 H53        -6.4470    2.6220   -1.3860 hc        1 MOL      0.082234
    128 H54        -7.0800    1.5910   -0.0890 hc        1 MOL      0.082234
    129 H55        -8.5600   -0.5160   -0.7120 ha        1 MOL      0.120668
    130 H56        -7.8790    3.0090   -3.3200 ha        1 MOL      0.120668
    131 H57       -10.7490   -0.8620   -2.1070 ha        1 MOL      0.122447
    132 H58        -9.8740    2.5800   -4.5390 ha        1 MOL      0.122447
    133 H59       -11.3740    0.6870   -3.7590 ha        1 MOL      0.092578
    134 N12        -5.1260   -1.8300   -1.0970 n         1 MOL     -0.058198
    135 C45        -5.4680   -3.1910   -0.6880 c3        1 MOL     -0.007970
    136 C46        -5.1550   -3.4480    0.8290 c         1 MOL      0.260458
    137 O20        -5.7020   -4.3380    1.4220 o         1 MOL     -0.478160
    138 C47        -4.6820   -4.0330   -1.6030 c3        1 MOL      0.044903
    139 C48        -4.3860   -3.2000   -2.8880 c3        1 MOL     -0.240675
    140 C49        -4.1390   -1.8820   -2.2350 c3        1 MOL     -0.041466
    141 H60        -6.4850   -3.4660   -0.9600 h1        1 MOL      0.091935
    142 H61        -3.7370   -4.1460   -1.0650 hc        1 MOL      0.015263
    143 H62        -5.2320   -4.9690   -1.7090 hc        1 MOL      0.015263
    144 H63        -3.4930   -3.5720   -3.3850 hc        1 MOL      0.067684
    145 H64        -5.2590   -3.2640   -3.5420 hc        1 MOL      0.067684
    146 H65        -3.1280   -1.9620   -1.8350 h1        1 MOL      0.137993
    147 H66        -4.2500   -1.0910   -2.9740 h1        1 MOL      0.137993
    148 N13        -4.3340   -2.6000    1.4730 n         1 MOL     -0.053643
    149 C50        -3.9970   -2.6790    2.9160 c3        1 MOL     -0.332948
    150 C51        -5.2840   -2.5480    3.6790 c         1 MOL      0.477009
    151 O21        -5.4630   -3.2670    4.6880 o         1 MOL     -0.551403
    152 C52        -3.0470   -1.5360    3.4220 c3        1 MOL      0.105595
    153 C53        -1.7550   -1.2420    2.6870 c3        1 MOL     -0.229741
    154 C54        -1.9480   -1.0080    1.1940 c         1 MOL      0.773954
    155 O22        -1.4660   -1.8670    0.3590 o         1 MOL     -0.786588
    156 O23        -2.6910   -0.0820    0.8870 o         1 MOL     -0.786588
    157 H67        -3.9870   -1.8050    0.9610 hn        1 MOL      0.304201
    158 H68        -3.6580   -3.7040    3.0500 h1        1 MOL      0.171007
    159 H69        -2.7900   -1.8160    4.4460 hc        1 MOL      0.018185
    160 H70        -3.5230   -0.5600    3.4740 hc        1 MOL      0.018185
    161 H71        -0.9890   -2.0120    2.7490 hc        1 MOL      0.046658
    162 H72        -1.4040   -0.3090    3.1180 hc        1 MOL      0.046658
    163 N14        -6.2380   -1.7000    3.1990 n         1 MOL     -0.080743
    164 C55        -7.5030   -1.4600    3.8530 c3        1 MOL     -0.265987
    165 H73        -7.3260   -1.0300    4.8390 h1        1 MOL      0.093478
    166 H74        -8.0950   -0.7660    3.2560 h1        1 MOL      0.093478
    167 H75        -8.0440   -2.4010    3.9580 h1        1 MOL      0.093478
    168 H76        -6.0290   -1.2700    2.3050 hn        1 MOL      0.123262
    169 Ca1         0.3210   -1.3340   -1.3320 Ca        1 MOL      1.724103
    170 O24        -0.5130   -3.7560   -2.4070 oh        1 MOL     -0.836703
    171 H77        -0.9080   -4.6350   -2.4290 ho        1 MOL      0.418397
    172 H78        -0.8190   -3.3280   -3.2000 ho        1 MOL      0.418397
    173 O25         1.1260    0.0470    1.0150 oh        1 MOL     -0.836703
    174 H79         1.8510    0.0360    1.6400 ho        1 MOL      0.418397
    175 H80         0.9200    0.9770    0.9040 ho        1 MOL      0.418397
    176 O26         1.4160   -3.1670    0.1950 oh        1 MOL     -0.836703
    177 H81         2.2080   -3.2390    0.7340 ho        1 MOL      0.418397
    178 H82         1.1620   -4.0770    0.0280 ho        1 MOL      0.418397
@<TRIPOS>BOND
     1    1    2 1   
     2    1    4 1   
     3    1    5 1   
     4    1    6 1   
     5    2    3 2   
     6    2    7 1   
     7    7    8 1   
     8    7   15 1   
     9    8    9 1   
    10    8   11 1   
    11    8   16 1   
    12    9   10 2   
    13    9   19 1   
    14   11   12 1   
    15   11   17 1   
    16   11   18 1   
    17   12   13 1   
    18   12   14 1   
    19   19   20 1   
    20   19   24 1   
    21   20   21 1   
    22   20   23 1   
    23   20   25 1   
    24   21   22 2   
    25   21   29 1   
    26   23   26 1   
    27   23   27 1   
    28   23   28 1   
    29   29   30 1   
    30   29   37 1   
    31   30   31 1   
    32   30   33 1   
    33   30   38 1   
    34   31   32 2   
    35   31   41 1   
    36   33   34 1   
    37   33   39 1   
    38   33   40 1   
    39   34   35 1   
    40   34   36 1   
    41   41   42 1   
    42   41   45 1   
    43   42   43 1   
    44   42   46 1   
    45   42   47 1   
    46   43   44 2   
    47   43   48 1   
    48   48   49 1   
    49   48   56 1   
    50   49   50 1   
    51   49   52 1   
    52   49   57 1   
    53   50   51 2   
    54   50   62 1   
    55   52   53 1   
    56   52   58 1   
    57   52   59 1   
    58   53   54 1   
    59   53   55 2   
    60   54   60 1   
    61   54   61 1   
    62   62   63 1   
    63   62   66 1   
    64   63   64 1   
    65   63   67 1   
    66   63   68 1   
    67   64   65 2   
    68   64   69 1   
    69   69   70 1   
    70   69   76 1   
    71   70   71 1   
    72   70   73 1   
    73   70   77 1   
    74   71   72 2   
    75   71   83 1   
    76   73   74 1   
    77   73   75 1   
    78   73   78 1   
    79   74   80 1   
    80   74   81 1   
    81   74   82 1   
    82   75   79 1   
    83   83   84 1   
    84   83   91 1   
    85   84   85 1   
    86   84   87 1   
    87   84   92 1   
    88   85   86 2   
    89   85  102 1   
    90   87   88 1   
    91   87   89 1   
    92   87   93 1   
    93   88   90 1   
    94   88   94 1   
    95   88   95 1   
    96   89   96 1   
    97   89   97 1   
    98   89   98 1   
    99   90   99 1   
   100   90  100 1   
   101   90  101 1   
   102  102  103 1   
   103  102  110 1   
   104  103  104 1   
   105  103  106 1   
   106  103  111 1   
   107  104  105 2   
   108  104  114 1   
   109  106  107 1   
   110  106  112 1   
   111  106  113 1   
   112  107  108 1   
   113  107  109 1   
   114  114  115 1   
   115  114  125 1   
   116  115  116 1   
   117  115  118 1   
   118  115  126 1   
   119  116  117 2   
   120  116  134 1   
   121  118  119 1   
   122  118  127 1   
   123  118  128 1   
   124  119  120 ar  
   125  119  121 ar  
   126  120  122 ar  
   127  120  129 1   
   128  121  123 ar  
   129  121  130 1   
   130  122  124 ar  
   131  122  131 1   
   132  123  124 ar  
   133  123  132 1   
   134  124  133 1   
   135  134  135 1   
   136  134  140 1   
   137  135  136 1   
   138  135  138 1   
   139  135  141 1   
   140  136  137 2   
   141  136  148 1   
   142  138  139 1   
   143  138  142 1   
   144  138  143 1   
   145  139  140 1   
   146  139  144 1   
   147  139  145 1   
   148  140  146 1   
   149  140  147 1   
   150  148  149 1   
   151  148  157 1   
   152  149  150 1   
   153  149  152 1   
   154  149  158 1   
   155  150  151 2   
   156  150  163 1   
   157  152  153 1   
   158  152  159 1   
   159  152  160 1   
   160  153  154 1   
   161  153  161 1   
   162  153  162 1   
   163  154  155 1   
   164  154  156 1   
   165  163  164 1   
   166  163  168 1   
   167  164  165 1   
   168  164  166 1   
   169  164  167 1   
   170  170  171 1   
   171  170  172 1   
   172  173  174 1   
   173  173  175 1   
   174  176  177 1   
   175  176  178 1   
@<TRIPOS>SUBSTRUCTURE
     1 MOL         1 TEMP              0 ****  ****    0 ROOT
