@<TRIPOS>MOLECULE
MOL
  186   183     1     0     0
SMALL
resp


@<TRIPOS>ATOM
      1 C1         -6.7500   -5.0530   -2.3870 c3        1 MOL     -0.536773
      2 C2         -6.5940   -3.7280   -1.6180 c         1 MOL      0.802528
      3 O1         -5.7460   -3.5860   -0.7600 o         1 MOL     -0.583352
      4 H1         -7.0500   -5.8410   -1.6960 hc        1 MOL      0.133961
      5 H2         -7.5120   -4.9390   -3.1580 hc        1 MOL      0.133961
      6 H3         -5.8000   -5.3190   -2.8510 hc        1 MOL      0.133961
      7 N1         -7.5250   -2.8020   -1.9890 n         1 MOL     -0.612593
      8 C3         -7.7140   -1.4950   -1.3990 c3        1 MOL      0.205718
      9 C4         -6.5560   -0.6520   -1.4090 c         1 MOL      0.479787
     10 O2         -5.8140   -0.5710   -0.4170 o         1 MOL     -0.629975
     11 C5         -8.4140   -1.6440   -0.0090 c3        1 MOL     -0.320379
     12 C6         -7.8450   -2.5980    1.0240 c         1 MOL      0.896958
     13 O3         -6.8780   -2.2930    1.7380 o         1 MOL     -0.771950
     14 O4         -8.4120   -3.7260    1.1890 o         1 MOL     -0.771950
     15 H4         -8.0860   -3.0110   -2.7990 hn        1 MOL      0.322551
     16 H5         -8.3380   -0.8930   -2.0590 h1        1 MOL      0.030800
     17 H6         -9.4660   -1.8710   -0.1820 hc        1 MOL      0.060878
     18 H7         -8.4870   -0.7440    0.6010 hc        1 MOL      0.060878
     19 N2         -6.1830   -0.0160   -2.5710 n         1 MOL     -0.524501
     20 C7         -5.2600    1.1500   -2.9360 c3        1 MOL      0.055859
     21 C8         -5.3960    2.4570   -2.1500 c         1 MOL      0.435449
     22 O5         -5.1910    3.5290   -2.7270 o         1 MOL     -0.539586
     23 C9         -3.7700    0.6020   -2.8050 c3        1 MOL      0.357074
     24 C10        -2.6670    1.7010   -3.0000 c3        1 MOL     -0.213349
     25 C11        -3.4730   -0.6110   -3.7810 c3        1 MOL     -0.377190
     26 C12        -2.5930    2.3950   -4.3610 c3        1 MOL     -0.367338
     27 H8         -6.7240   -0.2630   -3.3900 hn        1 MOL      0.260079
     28 H9         -5.5870    1.4210   -3.9410 h1        1 MOL      0.063340
     29 H10        -3.6790    0.3140   -1.7510 hc        1 MOL      0.029849
     30 H11        -1.7250    1.1690   -2.8520 hc        1 MOL      0.157090
     31 H12        -2.7000    2.4610   -2.2310 hc        1 MOL      0.157090
     32 H13        -4.1180   -1.4420   -3.4950 hc        1 MOL      0.066040
     33 H14        -3.6980   -0.2550   -4.7870 hc        1 MOL      0.066040
     34 H15        -2.4630   -1.0040   -3.6560 hc        1 MOL      0.066040
     35 H16        -3.5060    2.6670   -4.8800 hc        1 MOL      0.089705
     36 H17        -1.9790    3.2870   -4.2420 hc        1 MOL      0.089705
     37 H18        -2.1130    1.6690   -5.0170 hc        1 MOL      0.089705
     38 N3         -5.8920    2.4830   -0.8980 n         1 MOL     -0.349332
     39 C13        -6.5150    3.6130   -0.2640 c3        1 MOL     -0.009935
     40 C14        -5.5750    4.8850   -0.0610 c         1 MOL      0.612717
     41 O6         -5.9560    5.9940   -0.3900 o         1 MOL     -0.568018
     42 C15        -7.3040    3.2350    1.0000 c3        1 MOL     -0.189234
     43 C16        -8.4980    4.0280    1.3360 c         1 MOL      0.724314
     44 O7         -9.5430    3.9390    0.6650 o         1 MOL     -0.743969
     45 O8         -8.3630    4.8340    2.3120 o         1 MOL     -0.743969
     46 H19        -5.9590    1.5910   -0.4290 hn        1 MOL      0.352657
     47 H20        -7.3080    3.9130   -0.9620 h1        1 MOL      0.070186
     48 H21        -6.6660    3.1870    1.8840 hc        1 MOL      0.044790
     49 H22        -7.6610    2.2130    0.8490 hc        1 MOL      0.044790
     50 N4         -4.3730    4.7080    0.3980 n         1 MOL     -0.471745
     51 C17        -3.6550    3.5170    0.9380 c3        1 MOL      0.048396
     52 C18        -2.5030    3.8190    1.9360 c         1 MOL      0.623624
     53 O9         -2.0470    4.9060    2.1880 o         1 MOL     -0.600166
     54 H23        -3.8810    5.5410    0.6920 hn        1 MOL      0.263111
     55 H24        -3.2500    2.9250    0.1140 h1        1 MOL      0.046248
     56 H25        -4.2910    2.7550    1.3750 h1        1 MOL      0.046248
     57 N5         -1.9810    2.8990    2.6920 n         1 MOL     -0.499666
     58 C19        -2.1660    1.4490    2.7730 c3        1 MOL      0.069215
     59 C20        -2.2640    0.7370    1.4060 c         1 MOL      0.287611
     60 O10        -3.2180    0.0720    1.0060 o         1 MOL     -0.625787
     61 C21        -3.4500    1.1390    3.6330 c3        1 MOL     -0.342123
     62 C22        -3.5480   -0.3980    3.9140 c         1 MOL      0.854400
     63 O11        -4.4240   -1.0090    3.2580 o         1 MOL     -0.726735
     64 O12        -2.9990   -0.8690    4.9330 o         1 MOL     -0.726735
     65 H26        -1.4740    3.2400    3.4920 hn        1 MOL      0.311375
     66 H27        -1.3510    0.9960    3.3390 h1        1 MOL      0.100283
     67 H28        -4.3190    1.5070    3.0930 hc        1 MOL      0.091456
     68 H29        -3.4800    1.6570    4.5910 hc        1 MOL      0.091456
     69 N6         -1.2650    0.9620    0.5990 n         1 MOL      0.061947
     70 C23         0.1120    1.4520    0.8040 c3        1 MOL     -0.170256
     71 C24         0.3990    2.7800    0.1360 c         1 MOL      0.397780
     72 O13        -0.3600    3.3280   -0.6630 o         1 MOL     -0.482750
     73 H30        -1.5620    0.5980   -0.2980 hn        1 MOL      0.106395
     74 H31         0.9030    0.7360    0.5750 h1        1 MOL      0.050899
     75 H32         0.0390    1.6900    1.8650 h1        1 MOL      0.050899
     76 N7          1.6250    3.3050    0.3840 n         1 MOL     -0.316125
     77 C25         2.1660    4.5600   -0.1660 c3        1 MOL      0.207636
     78 C26         2.7720    4.2360   -1.5790 c         1 MOL      0.252946
     79 O14         3.0490    5.1500   -2.3990 o         1 MOL     -0.481800
     80 C27         3.3230    5.0300    0.6950 c3        1 MOL     -0.064388
     81 C28         2.8090    5.6550    1.9580 c3        1 MOL     -0.184776
     82 C29         3.9110    5.8360    3.0290 c         1 MOL      0.702027
     83 N8          3.6030    6.4840    4.1460 n         1 MOL     -0.872140
     84 O15         5.0080    5.3290    2.9290 o         1 MOL     -0.539312
     85 H33         2.2420    2.7760    0.9790 hn        1 MOL      0.248037
     86 H34         1.4110    5.3290   -0.3310 h1        1 MOL      0.091471
     87 H35         3.9980    5.7320    0.2100 hc        1 MOL      0.041475
     88 H36         3.9220    4.1590    0.9670 hc        1 MOL      0.041475
     89 H37         1.9490    5.1210    2.3630 hc        1 MOL      0.046885
     90 H38         2.3400    6.6090    1.7150 hc        1 MOL      0.046885
     91 H39         2.6320    6.7500    4.3010 hn        1 MOL      0.378834
     92 H40         4.1970    6.4220    4.9500 hn        1 MOL      0.378834
     93 N9          3.1410    2.9430   -1.7100 n         1 MOL     -0.255815
     94 C30         3.5540    2.4550   -3.0780 c3        1 MOL      0.031656
     95 C31         4.9580    1.8570   -3.1970 c         1 MOL      0.465541
     96 O16         5.4450    1.6850   -4.2850 o         1 MOL     -0.546461
     97 C32         2.5990    1.3450   -3.4550 c3        1 MOL      0.133028
     98 C33         1.1860    1.8780   -3.6360 c3        1 MOL     -0.038133
     99 C34         2.7470    0.0400   -2.6730 c3        1 MOL     -0.038133
    100 H41         2.9100    2.2800   -0.9760 hn        1 MOL      0.262414
    101 H42         3.5050    3.2270   -3.8490 h1        1 MOL      0.096632
    102 H43         2.8790    1.0990   -4.4790 hc        1 MOL     -0.025632
    103 H44         0.8220    2.2950   -2.6990 hc        1 MOL     -0.010113
    104 H45         1.1830    2.6690   -4.3850 hc        1 MOL     -0.010113
    105 H46         0.5030    1.1030   -3.9920 hc        1 MOL     -0.010113
    106 H47         2.2370   -0.7700   -3.1980 hc        1 MOL     -0.010113
    107 H48         3.7400   -0.3060   -2.3690 hc        1 MOL     -0.010113
    108 H49         2.2690    0.2510   -1.7090 hc        1 MOL     -0.010113
    109 N10         5.5290    1.5680   -2.0240 n         1 MOL     -0.229408
    110 C35         6.8860    0.9660   -1.9390 c3        1 MOL      0.231423
    111 C36         6.9230   -0.4550   -1.4240 c         1 MOL      0.357968
    112 O17         7.9330   -1.1620   -1.7530 o         1 MOL     -0.536864
    113 C37         7.8390    1.7880   -1.0350 c3        1 MOL     -0.502736
    114 C38         7.9860    3.1480   -1.6020 c         1 MOL      0.674743
    115 N11         9.1740    3.5650   -1.9160 n         1 MOL     -0.723373
    116 O18         7.0250    3.9200   -1.6680 o         1 MOL     -0.554604
    117 H50         5.0340    1.8350   -1.1800 hn        1 MOL      0.128476
    118 H51         7.2950    0.9120   -2.9590 h1        1 MOL      0.067231
    119 H52         8.7800    1.2410   -0.9350 hc        1 MOL      0.161297
    120 H53         7.5000    1.9040   -0.0090 hc        1 MOL      0.161297
    121 H54         9.9620    2.9550   -1.7350 hn        1 MOL      0.336344
    122 H55         9.3330    4.5550   -1.9890 hn        1 MOL      0.336344
    123 N12         5.8590   -0.9270   -0.7470 n         1 MOL     -0.215347
    124 C39         5.7750   -2.1550    0.0180 c3        1 MOL     -0.012837
    125 C40         4.4120   -2.8440    0.2110 c         1 MOL      0.525383
    126 O19         3.3990   -2.2160   -0.0870 o         1 MOL     -0.388631
    127 C41         6.3450   -1.8760    1.3690 c3        1 MOL     -0.139089
    128 C42         7.8750   -1.4100    1.3380 ca        1 MOL     -0.034126
    129 C43         8.9860   -2.2300    1.1490 ca        1 MOL     -0.094199
    130 C44         8.1110   -0.0560    1.6260 ca        1 MOL     -0.094199
    131 C45        10.2460   -1.7090    1.3150 ca        1 MOL     -0.217651
    132 C46         9.3580    0.4950    1.8090 ca        1 MOL     -0.217651
    133 C47        10.4970   -0.3300    1.5300 ca        1 MOL      0.263940
    134 O20        11.7510    0.1220    1.7300 oh        1 MOL     -0.464780
    135 H56         5.0230   -0.3690   -0.6980 hn        1 MOL      0.181433
    136 H57         6.3840   -2.8890   -0.5070 h1        1 MOL      0.076017
    137 H58         6.2040   -2.7620    1.9960 hc        1 MOL      0.094043
    138 H59         5.6530   -1.2070    1.8730 hc        1 MOL      0.094043
    139 H60         8.9650   -3.3110    1.0420 ha        1 MOL      0.104838
    140 H61         7.2560    0.6000    1.7500 ha        1 MOL      0.104838
    141 H62        10.9850   -2.5000    1.3100 ha        1 MOL      0.125896
    142 H63         9.5050    1.5160    2.1300 ha        1 MOL      0.125896
    143 H64        12.3600   -0.5550    1.4480 ho        1 MOL      0.345920
    144 N13         4.4410   -4.0830    0.6360 n         1 MOL     -0.679904
    145 C48         3.2490   -4.8860    1.1370 c3        1 MOL      0.268335
    146 C49         2.0770   -5.3090    0.1710 c         1 MOL      0.145677
    147 O21         1.6730   -6.4880    0.1240 o         1 MOL     -0.488243
    148 C50         2.7260   -4.2420    2.4040 c3        1 MOL     -0.052864
    149 C51         3.7170   -4.1270    3.5740 c3        1 MOL     -0.207152
    150 C52         3.0080   -3.5800    4.8370 c         1 MOL      0.685558
    151 O22         2.7570   -2.3450    4.9310 o         1 MOL     -0.713972
    152 O23         2.8430   -4.3390    5.8200 o         1 MOL     -0.713972
    153 H65         5.3060   -4.5740    0.7880 hn        1 MOL      0.363201
    154 H66         3.6800   -5.8390    1.4410 h1        1 MOL      0.029417
    155 H67         1.8640   -4.8270    2.7150 hc        1 MOL      0.062291
    156 H68         2.3690   -3.2580    2.1100 hc        1 MOL      0.062291
    157 H69         4.3600   -3.2910    3.3290 hc        1 MOL      0.016394
    158 H70         4.2810   -5.0090    3.8800 hc        1 MOL      0.016394
    159 N14         1.5480   -4.3130   -0.5290 n         1 MOL      0.100732
    160 C53         0.5600   -4.4610   -1.5450 c3        1 MOL     -0.211249
    161 C54         1.0190   -5.2130   -2.7840 c         1 MOL      0.448368
    162 O24         0.2120   -5.6650   -3.5520 o         1 MOL     -0.525442
    163 C55         0.1320   -3.0700   -2.0210 c3        1 MOL     -0.097290
    164 C56        -0.3660   -2.1530   -0.8930 c3        1 MOL      0.149925
    165 C57        -1.7100   -2.5060   -0.2550 c         1 MOL      0.626420
    166 O25        -1.8610   -2.6770    0.9700 o         1 MOL     -0.724695
    167 O26        -2.7240   -2.5940   -0.9660 o         1 MOL     -0.724695
    168 H71         1.9480   -3.3950   -0.3640 hn        1 MOL      0.048449
    169 H72        -0.3380   -4.9640   -1.1810 h1        1 MOL      0.162893
    170 H73        -0.7160   -3.1740   -2.7110 hc        1 MOL      0.054896
    171 H74         0.9360   -2.5120   -2.5040 hc        1 MOL      0.054896
    172 H75        -0.4790   -1.1630   -1.3490 hc        1 MOL     -0.065526
    173 H76         0.4020   -2.0730   -0.1280 hc        1 MOL     -0.065526
    174 N15         2.3180   -5.2410   -3.0390 n         1 MOL     -0.144320
    175 C58         2.9500   -5.9620   -4.1260 c3        1 MOL     -0.374909
    176 H77         2.5470   -6.9740   -4.1740 h1        1 MOL      0.132594
    177 H78         2.7530   -5.4480   -5.0680 h1        1 MOL      0.132594
    178 H79         4.0260   -6.0090   -3.9560 h1        1 MOL      0.132594
    179 H80         2.8590   -4.5970   -2.4880 hn        1 MOL      0.195869
    180 Ca1        -4.4320   -2.3450    1.0860 Ca        1 MOL      1.774242
    181 O27        -4.5180   -5.1230    1.3360 oh        1 MOL     -0.806605
    182 H81        -4.5560   -5.5670    0.4870 ho        1 MOL      0.392049
    183 H82        -3.8930   -5.6290    1.8510 ho        1 MOL      0.392049
    184 O28        -3.3190   -3.8100    3.7190 oh        1 MOL     -0.806605
    185 H83        -2.5620   -4.3810    3.8360 ho        1 MOL      0.392049
    186 H84        -3.4800   -3.4330    4.5810 ho        1 MOL      0.392049
@<TRIPOS>BOND
     1    1    2 1   
     2    1    4 1   
     3    1    5 1   
     4    1    6 1   
     5    2    3 2   
     6    2    7 1   
     7    7    8 1   
     8    7   15 1   
     9    8    9 1   
    10    8   11 1   
    11    8   16 1   
    12    9   10 2   
    13    9   19 1   
    14   11   12 1   
    15   11   17 1   
    16   11   18 1   
    17   12   13 1   
    18   12   14 1   
    19   19   20 1   
    20   19   27 1   
    21   20   21 1   
    22   20   23 1   
    23   20   28 1   
    24   21   22 2   
    25   21   38 1   
    26   23   24 1   
    27   23   25 1   
    28   23   29 1   
    29   24   26 1   
    30   24   30 1   
    31   24   31 1   
    32   25   32 1   
    33   25   33 1   
    34   25   34 1   
    35   26   35 1   
    36   26   36 1   
    37   26   37 1   
    38   38   39 1   
    39   38   46 1   
    40   39   40 1   
    41   39   42 1   
    42   39   47 1   
    43   40   41 2   
    44   40   50 1   
    45   42   43 1   
    46   42   48 1   
    47   42   49 1   
    48   43   44 1   
    49   43   45 1   
    50   50   51 1   
    51   50   54 1   
    52   51   52 1   
    53   51   55 1   
    54   51   56 1   
    55   52   53 2   
    56   52   57 1   
    57   57   58 1   
    58   57   65 1   
    59   58   59 1   
    60   58   61 1   
    61   58   66 1   
    62   59   60 2   
    63   59   69 1   
    64   61   62 1   
    65   61   67 1   
    66   61   68 1   
    67   62   63 1   
    68   62   64 1   
    69   69   70 1   
    70   69   73 1   
    71   70   71 1   
    72   70   74 1   
    73   70   75 1   
    74   71   72 2   
    75   71   76 1   
    76   76   77 1   
    77   76   85 1   
    78   77   78 1   
    79   77   80 1   
    80   77   86 1   
    81   78   79 2   
    82   78   93 1   
    83   80   81 1   
    84   80   87 1   
    85   80   88 1   
    86   81   82 1   
    87   81   89 1   
    88   81   90 1   
    89   82   83 1   
    90   82   84 2   
    91   83   91 1   
    92   83   92 1   
    93   93   94 1   
    94   93  100 1   
    95   94   95 1   
    96   94   97 1   
    97   94  101 1   
    98   95   96 2   
    99   95  109 1   
   100   97   98 1   
   101   97   99 1   
   102   97  102 1   
   103   98  103 1   
   104   98  104 1   
   105   98  105 1   
   106   99  106 1   
   107   99  107 1   
   108   99  108 1   
   109  109  110 1   
   110  109  117 1   
   111  110  111 1   
   112  110  113 1   
   113  110  118 1   
   114  111  112 2   
   115  111  123 1   
   116  113  114 1   
   117  113  119 1   
   118  113  120 1   
   119  114  115 1   
   120  114  116 2   
   121  115  121 1   
   122  115  122 1   
   123  123  124 1   
   124  123  135 1   
   125  124  125 1   
   126  124  127 1   
   127  124  136 1   
   128  125  126 2   
   129  125  144 1   
   130  127  128 1   
   131  127  137 1   
   132  127  138 1   
   133  128  129 ar  
   134  128  130 ar  
   135  129  131 ar  
   136  129  139 1   
   137  130  132 ar  
   138  130  140 1   
   139  131  133 ar  
   140  131  141 1   
   141  132  133 ar  
   142  132  142 1   
   143  133  134 1   
   144  134  143 1   
   145  144  145 1   
   146  144  153 1   
   147  145  146 1   
   148  145  148 1   
   149  145  154 1   
   150  146  147 2   
   151  146  159 1   
   152  148  149 1   
   153  148  155 1   
   154  148  156 1   
   155  149  150 1   
   156  149  157 1   
   157  149  158 1   
   158  150  151 1   
   159  150  152 1   
   160  159  160 1   
   161  159  168 1   
   162  160  161 1   
   163  160  163 1   
   164  160  169 1   
   165  161  162 2   
   166  161  174 1   
   167  163  164 1   
   168  163  170 1   
   169  163  171 1   
   170  164  165 1   
   171  164  172 1   
   172  164  173 1   
   173  165  166 1   
   174  165  167 1   
   175  174  175 1   
   176  174  179 1   
   177  175  176 1   
   178  175  177 1   
   179  175  178 1   
   180  181  182 1   
   181  181  183 1   
   182  184  185 1   
   183  184  186 1   
@<TRIPOS>SUBSTRUCTURE
     1 MOL         1 TEMP              0 ****  ****    0 ROOT
