@<TRIPOS>MOLECULE
MOL
  186   183     1     0     0
SMALL
resp


@<TRIPOS>ATOM
      1 C1         11.7980    5.8850   -2.7180 c3        1 MOL     -0.096365
      2 C2         11.6020    4.6090   -1.8650 c         1 MOL      0.761015
      3 O1         11.7120    3.4840   -2.3260 o         1 MOL     -0.625335
      4 H1         12.6130    6.4780   -2.3020 hc        1 MOL      0.017177
      5 H2         12.0410    5.6040   -3.7430 hc        1 MOL      0.017177
      6 H3         10.8810    6.4730   -2.7100 hc        1 MOL      0.017177
      7 N1         11.2080    4.7660   -0.6190 n         1 MOL     -0.393188
      8 C3         11.0320    3.5620    0.2830 c3        1 MOL     -0.672300
      9 C4          9.8370    2.6670   -0.0480 c         1 MOL      0.869641
     10 O2          8.7590    3.1280   -0.2490 o         1 MOL     -0.624487
     11 C5         11.0790    3.9660    1.7530 c3        1 MOL      0.194787
     12 C6          9.9390    4.8970    2.2770 c         1 MOL      0.801485
     13 O3          9.0780    5.2940    1.5550 o         1 MOL     -0.756676
     14 O4         10.0500    5.3460    3.4230 o         1 MOL     -0.756676
     15 H4         10.9680    5.6610   -0.2150 hn        1 MOL      0.225326
     16 H5         11.9240    2.9720    0.0780 h1        1 MOL      0.191209
     17 H6         12.0220    4.4550    1.9940 hc        1 MOL      0.008130
     18 H7         11.0250    3.0770    2.3830 hc        1 MOL      0.008130
     19 N2         10.0910    1.3420    0.1160 n         1 MOL     -0.473642
     20 C7          9.1290    0.3560   -0.4140 c3        1 MOL     -0.028664
     21 C8          7.8720    0.0910    0.4330 c         1 MOL      0.444379
     22 O5          7.9860    0.0440    1.7070 o         1 MOL     -0.481664
     23 C9          9.8900   -1.0150   -0.7110 c3        1 MOL     -0.157197
     24 C10         9.1500   -1.6840   -1.8870 c3        1 MOL      0.039681
     25 C11        10.1410   -2.5860   -2.7050 c3        1 MOL     -0.145462
     26 C12         9.5360   -3.5270   -3.7950 c3        1 MOL     -0.007557
     27 N3          8.5240   -4.4450   -3.3530 n4        1 MOL     -0.256495
     28 H8         11.0300    1.0200    0.3250 hn        1 MOL      0.319403
     29 H9          8.8360    0.8200   -1.3550 h1        1 MOL      0.127071
     30 H10         9.8930   -1.6570    0.1700 hc        1 MOL      0.075459
     31 H11        10.9330   -0.8800   -0.9970 hc        1 MOL      0.075459
     32 H12         8.8380   -0.9540   -2.6310 hc        1 MOL      0.042028
     33 H13         8.2940   -2.2270   -1.4750 hc        1 MOL      0.042028
     34 H14        10.6260   -3.2780   -2.0160 hc        1 MOL      0.077040
     35 H15        10.8310   -1.9800   -3.2990 hc        1 MOL      0.077040
     36 H16        10.4030   -4.0320   -4.2160 hx        1 MOL      0.093131
     37 H17         9.2010   -2.9440   -4.6580 hx        1 MOL      0.093131
     38 H18         7.9960   -5.0020   -4.0020 hn        1 MOL      0.253619
     39 H19         8.9170   -5.1600   -2.7630 hn        1 MOL      0.253619
     40 H20         7.7840   -4.0090   -2.8170 hn        1 MOL      0.253619
     41 N4          6.7300   -0.1170   -0.2110 n         1 MOL     -0.316194
     42 C13         5.4800   -0.3930    0.4520 c3        1 MOL      0.003413
     43 C14         4.7350   -1.5710   -0.1210 c         1 MOL      0.515855
     44 O6          4.9630   -2.0530   -1.1840 o         1 MOL     -0.605932
     45 C15         4.6050    0.9070    0.3340 c3        1 MOL      0.310109
     46 C16         5.2300    2.2410    0.3210 c         1 MOL      0.570315
     47 O7          5.1060    3.0230   -0.6290 o         1 MOL     -0.778317
     48 O8          5.9520    2.5980    1.3180 o         1 MOL     -0.778317
     49 H21         6.7700   -0.0890   -1.2240 hn        1 MOL      0.189870
     50 H22         5.7320   -0.5850    1.4910 h1        1 MOL      0.078034
     51 H23         3.8510    0.8140    1.1120 hc        1 MOL     -0.041481
     52 H24         3.9530    0.8630   -0.5420 hc        1 MOL     -0.041481
     53 N5          3.7850   -2.1580    0.6350 n         1 MOL     -0.283494
     54 C17         3.1470   -1.6750    1.8490 c3        1 MOL     -0.336526
     55 C18         2.6590   -2.7710    2.8590 c         1 MOL      0.664391
     56 O9          3.1710   -3.9100    2.9030 o         1 MOL     -0.567683
     57 H25         3.3720   -3.0140    0.2850 hn        1 MOL      0.235371
     58 H26         2.3130   -1.0230    1.6260 h1        1 MOL      0.136343
     59 H27         3.8790   -1.0550    2.3780 h1        1 MOL      0.136343
     60 N6          1.6610   -2.4860    3.6940 n         1 MOL     -0.507925
     61 C19         1.1680   -3.4160    4.6720 c3        1 MOL      0.217097
     62 C20         0.2570   -4.5220    4.0530 c         1 MOL      0.484302
     63 O10        -0.9470   -4.3830    4.1040 o         1 MOL     -0.477674
     64 C21         0.7020   -2.6610    5.8650 c3        1 MOL     -0.245397
     65 C22         0.2860   -3.4650    7.1170 c         1 MOL      0.671726
     66 O11        -0.3100   -2.8820    8.0510 o         1 MOL     -0.599683
     67 O12         0.3990   -4.7130    7.1180 o         1 MOL     -0.599683
     68 H28         1.3920   -1.5190    3.8540 hn        1 MOL      0.303214
     69 H29         2.0100   -4.0450    4.9830 h1        1 MOL     -0.005934
     70 H30        -0.0600   -1.9650    5.4880 hc        1 MOL      0.056121
     71 H31         1.5390   -1.9960    6.0760 hc        1 MOL      0.056121
     72 N7          0.8460   -5.5600    3.4460 n         1 MOL     -0.441167
     73 C23         0.1630   -6.5830    2.6420 c3        1 MOL     -0.037569
     74 C24        -0.1410   -6.2730    1.1380 c         1 MOL      0.423908
     75 O13        -0.9760   -6.9210    0.5370 o         1 MOL     -0.536215
     76 H32         1.8530   -5.5400    3.3640 hn        1 MOL      0.294930
     77 H33        -0.7560   -6.7820    3.1940 h1        1 MOL      0.098232
     78 H34         0.7050   -7.5240    2.7010 h1        1 MOL      0.098232
     79 N8          0.5650   -5.2770    0.5820 n         1 MOL     -0.220448
     80 C25         0.4880   -4.6530   -0.8020 c3        1 MOL     -0.002532
     81 C26         0.3070   -3.1420   -0.7550 c         1 MOL      0.376516
     82 O14         0.5320   -2.4470    0.2240 o         1 MOL     -0.506556
     83 C27         1.7880   -4.9710   -1.5480 c3        1 MOL      0.111083
     84 C28         1.8620   -4.4460   -2.9690 c3        1 MOL     -0.056561
     85 O15         2.8780   -4.4270   -0.8730 oh        1 MOL     -0.537196
     86 H35         1.3420   -5.0110    1.1830 hn        1 MOL      0.188947
     87 H36        -0.3560   -5.0390   -1.3700 h1        1 MOL      0.061851
     88 H37         1.9650   -6.0430   -1.6120 h1        1 MOL      0.043955
     89 H38         3.6200   -4.9600   -1.1750 ho        1 MOL      0.399701
     90 H39         2.1160   -3.3850   -2.9660 hc        1 MOL      0.011209
     91 H40         2.6420   -4.8920   -3.5800 hc        1 MOL      0.011209
     92 H41         0.9730   -4.7050   -3.5420 hc        1 MOL      0.011209
     93 N9         -0.2510   -2.6470   -1.8300 n         1 MOL     -0.047886
     94 C29        -0.7390   -1.2420   -1.9680 c3        1 MOL     -0.142128
     95 C30        -2.1670   -1.0760   -1.4450 c         1 MOL      0.690507
     96 O16        -2.4170   -0.0170   -0.9030 o         1 MOL     -0.523107
     97 C31        -0.5140   -0.7880   -3.4370 c3        1 MOL      0.180296
     98 C32         0.6530   -1.3020   -4.3690 c3        1 MOL     -0.023346
     99 C33        -0.4210    0.7530   -3.4070 c3        1 MOL     -0.251971
    100 C34         2.1000   -0.9190   -3.9070 c3        1 MOL     -0.155018
    101 H42        -0.5350   -3.3260   -2.5210 hn        1 MOL      0.194285
    102 H43        -0.1320   -0.6160   -1.3230 h1        1 MOL      0.087764
    103 H44        -1.3900   -1.1380   -3.9860 hc        1 MOL     -0.052178
    104 H45         0.5030   -0.9350   -5.3900 hc        1 MOL     -0.000525
    105 H46         0.5960   -2.3920   -4.3030 hc        1 MOL     -0.000525
    106 H47         0.0090    1.1960   -4.3010 hc        1 MOL      0.069508
    107 H48        -1.3420    1.2710   -3.1480 hc        1 MOL      0.069508
    108 H49         0.3410    0.9980   -2.6620 hc        1 MOL      0.069508
    109 H50         2.2850    0.1490   -3.9610 hc        1 MOL      0.055297
    110 H51         2.2300   -1.2980   -2.8940 hc        1 MOL      0.055297
    111 H52         2.7660   -1.4950   -4.5500 hc        1 MOL      0.055297
    112 N10        -3.0610   -2.0790   -1.4840 n         1 MOL     -0.642436
    113 C35        -4.5630   -1.9300   -1.2200 c3        1 MOL      0.029635
    114 C36        -5.5030   -1.8930   -2.4670 c         1 MOL      0.626082
    115 O17        -5.1530   -2.1080   -3.6090 o         1 MOL     -0.503726
    116 C37        -4.8580   -2.9240   -0.0790 c3        1 MOL      0.374537
    117 C38        -4.3730   -4.3560   -0.2030 c3        1 MOL     -0.446662
    118 O18        -4.3340   -2.4170    1.1150 oh        1 MOL     -0.634588
    119 H53        -2.7260   -2.8990   -1.9980 hn        1 MOL      0.258985
    120 H54        -4.6940   -0.9490   -0.7500 h1        1 MOL      0.079036
    121 H55        -5.9340   -2.8730    0.1170 h1        1 MOL      0.051845
    122 H56        -3.3770   -2.4590    1.1780 ho        1 MOL      0.422063
    123 H57        -3.3590   -4.3900    0.1870 hc        1 MOL      0.131059
    124 H58        -5.0170   -5.0150    0.3760 hc        1 MOL      0.131059
    125 H59        -4.3520   -4.7060   -1.2390 hc        1 MOL      0.131059
    126 N11        -6.8150   -1.6890   -2.1890 n         1 MOL     -0.516847
    127 C39        -7.9350   -1.5340   -3.1600 c3        1 MOL     -0.110535
    128 C40        -8.8390   -0.2330   -2.8570 c         1 MOL      0.644544
    129 O19        -9.3370    0.3150   -3.8210 o         1 MOL     -0.552527
    130 C41        -8.8990   -2.7480   -3.2350 c3        1 MOL      0.389137
    131 C42        -9.4910   -3.2660   -1.9320 c3        1 MOL     -0.219466
    132 O20        -8.2950   -3.9070   -3.7420 oh        1 MOL     -0.554483
    133 H60        -6.9970   -1.5290   -1.2080 hn        1 MOL      0.236077
    134 H61        -7.5380   -1.4340   -4.1720 h1        1 MOL      0.116071
    135 H62        -9.7470   -2.3700   -3.8100 h1        1 MOL     -0.029740
    136 H63        -8.7910   -4.0840   -4.5490 ho        1 MOL      0.359649
    137 H64        -9.9080   -2.3990   -1.4040 hc        1 MOL      0.048916
    138 H65       -10.1990   -4.0630   -2.1320 hc        1 MOL      0.048916
    139 H66        -8.6340   -3.6870   -1.4120 hc        1 MOL      0.048916
    140 N12        -9.0850    0.1700   -1.5770 n         1 MOL     -0.519092
    141 C43        -9.9260    1.2190   -1.0470 c3        1 MOL      0.140070
    142 C44        -9.2030    2.0960    0.0240 c         1 MOL      0.410940
    143 O21        -8.7000    1.5140    1.0030 o         1 MOL     -0.488191
    144 C45       -11.1630    0.5470   -0.4260 c3        1 MOL     -0.289693
    145 C46       -12.2740    1.6130   -0.1490 c3        1 MOL      0.330094
    146 C47       -13.4980    1.0250    0.6140 c3        1 MOL     -0.020105
    147 C48       -14.5540    2.0690    0.4000 c3        1 MOL      0.035833
    148 N13       -15.8160    1.6920    1.0130 n4        1 MOL     -0.107666
    149 H67        -8.6080   -0.3460   -0.8500 hn        1 MOL      0.298935
    150 H68       -10.1710    1.8500   -1.8950 h1        1 MOL      0.065727
    151 H69       -10.8550   -0.0010    0.4680 hc        1 MOL      0.072830
    152 H70       -11.5680   -0.1410   -1.1690 hc        1 MOL      0.072830
    153 H71       -12.5680    1.9000   -1.1540 hc        1 MOL     -0.054636
    154 H72       -11.9030    2.5290    0.3270 hc        1 MOL     -0.054636
    155 H73       -13.2760    0.8450    1.6640 hc        1 MOL      0.011772
    156 H74       -13.8690    0.1160    0.1460 hc        1 MOL      0.011772
    157 H75       -14.6990    2.1680   -0.6750 hx        1 MOL      0.053361
    158 H76       -14.2030    2.9830    0.8610 hx        1 MOL      0.053361
    159 H77       -15.6770    1.4950    1.9970 hn        1 MOL      0.208449
    160 H78       -16.5910    2.3400    1.0100 hn        1 MOL      0.208449
    161 H79       -16.0220    0.7630    0.6790 hn        1 MOL      0.208449
    162 N14        -9.1640    3.4220   -0.0420 n         1 MOL     -0.359032
    163 C49        -8.6380    4.2830    0.9700 c3        1 MOL      0.335450
    164 C50        -7.2350    4.0310    1.5490 c         1 MOL      0.331236
    165 O22        -7.1760    3.8480    2.7680 o         1 MOL     -0.510549
    166 C51        -8.8580    5.7610    0.6620 c3        1 MOL     -0.170238
    167 C52        -8.6630    6.7460    1.8560 c3        1 MOL     -0.082175
    168 C53        -8.9200    8.2220    1.5170 c         1 MOL      0.694044
    169 O23        -7.9640    8.9990    1.7360 o         1 MOL     -0.654956
    170 O24       -10.0280    8.6210    1.0500 o         1 MOL     -0.654956
    171 H80        -9.6470    3.8720   -0.8080 hn        1 MOL      0.194705
    172 H81        -9.2280    4.0470    1.8530 h1        1 MOL      0.007472
    173 H82        -9.8600    6.0610    0.3580 hc        1 MOL      0.028036
    174 H83        -8.1510    6.0860   -0.1040 hc        1 MOL      0.028036
    175 H84        -7.6600    6.5670    2.2440 hc        1 MOL      0.014660
    176 H85        -9.3970    6.4900    2.6140 hc        1 MOL      0.014660
    177 N15        -6.1940    4.0020    0.7340 n         1 MOL     -0.301654
    178 C54        -6.1020    4.2650   -0.7310 c3        1 MOL      0.018949
    179 H86        -6.4280    3.3800   -1.2790 h1        1 MOL      0.039333
    180 H87        -6.7420    5.1080   -0.9900 h1        1 MOL      0.039333
    181 H88        -5.0700    4.4960   -0.9960 h1        1 MOL      0.039333
    182 H89        -5.3450    3.6800    1.1610 hn        1 MOL      0.279993
    183 Ca1         6.8510    4.8330    0.3520 Ca        1 MOL      1.649456
    184 O25         7.7390    4.9590   -2.5550 oh        1 MOL     -0.735335
    185 H90         7.9610    5.1560   -3.4670 ho        1 MOL      0.360145
    186 H91         6.9400    5.4550   -2.3880 ho        1 MOL      0.360145
@<TRIPOS>BOND
     1    1    2 1   
     2    1    4 1   
     3    1    5 1   
     4    1    6 1   
     5    2    3 2   
     6    2    7 1   
     7    7    8 1   
     8    7   15 1   
     9    8    9 1   
    10    8   11 1   
    11    8   16 1   
    12    9   10 2   
    13    9   19 1   
    14   11   12 1   
    15   11   17 1   
    16   11   18 1   
    17   12   13 1   
    18   12   14 1   
    19   19   20 1   
    20   19   28 1   
    21   20   21 1   
    22   20   23 1   
    23   20   29 1   
    24   21   22 2   
    25   21   41 1   
    26   23   24 1   
    27   23   30 1   
    28   23   31 1   
    29   24   25 1   
    30   24   32 1   
    31   24   33 1   
    32   25   26 1   
    33   25   34 1   
    34   25   35 1   
    35   26   27 1   
    36   26   36 1   
    37   26   37 1   
    38   27   38 1   
    39   27   39 1   
    40   27   40 1   
    41   41   42 1   
    42   41   49 1   
    43   42   43 1   
    44   42   45 1   
    45   42   50 1   
    46   43   44 2   
    47   43   53 1   
    48   45   46 1   
    49   45   51 1   
    50   45   52 1   
    51   46   47 1   
    52   46   48 1   
    53   53   54 1   
    54   53   57 1   
    55   54   55 1   
    56   54   58 1   
    57   54   59 1   
    58   55   56 2   
    59   55   60 1   
    60   60   61 1   
    61   60   68 1   
    62   61   62 1   
    63   61   64 1   
    64   61   69 1   
    65   62   63 2   
    66   62   72 1   
    67   64   65 1   
    68   64   70 1   
    69   64   71 1   
    70   65   66 1   
    71   65   67 1   
    72   72   73 1   
    73   72   76 1   
    74   73   74 1   
    75   73   77 1   
    76   73   78 1   
    77   74   75 2   
    78   74   79 1   
    79   79   80 1   
    80   79   86 1   
    81   80   81 1   
    82   80   83 1   
    83   80   87 1   
    84   81   82 2   
    85   81   93 1   
    86   83   84 1   
    87   83   85 1   
    88   83   88 1   
    89   84   90 1   
    90   84   91 1   
    91   84   92 1   
    92   85   89 1   
    93   93   94 1   
    94   93  101 1   
    95   94   95 1   
    96   94   97 1   
    97   94  102 1   
    98   95   96 2   
    99   95  112 1   
   100   97   98 1   
   101   97   99 1   
   102   97  103 1   
   103   98  100 1   
   104   98  104 1   
   105   98  105 1   
   106   99  106 1   
   107   99  107 1   
   108   99  108 1   
   109  100  109 1   
   110  100  110 1   
   111  100  111 1   
   112  112  113 1   
   113  112  119 1   
   114  113  114 1   
   115  113  116 1   
   116  113  120 1   
   117  114  115 2   
   118  114  126 1   
   119  116  117 1   
   120  116  118 1   
   121  116  121 1   
   122  117  123 1   
   123  117  124 1   
   124  117  125 1   
   125  118  122 1   
   126  126  127 1   
   127  126  133 1   
   128  127  128 1   
   129  127  130 1   
   130  127  134 1   
   131  128  129 2   
   132  128  140 1   
   133  130  131 1   
   134  130  132 1   
   135  130  135 1   
   136  131  137 1   
   137  131  138 1   
   138  131  139 1   
   139  132  136 1   
   140  140  141 1   
   141  140  149 1   
   142  141  142 1   
   143  141  144 1   
   144  141  150 1   
   145  142  143 2   
   146  142  162 1   
   147  144  145 1   
   148  144  151 1   
   149  144  152 1   
   150  145  146 1   
   151  145  153 1   
   152  145  154 1   
   153  146  147 1   
   154  146  155 1   
   155  146  156 1   
   156  147  148 1   
   157  147  157 1   
   158  147  158 1   
   159  148  159 1   
   160  148  160 1   
   161  148  161 1   
   162  162  163 1   
   163  162  171 1   
   164  163  164 1   
   165  163  166 1   
   166  163  172 1   
   167  164  165 2   
   168  164  177 1   
   169  166  167 1   
   170  166  173 1   
   171  166  174 1   
   172  167  168 1   
   173  167  175 1   
   174  167  176 1   
   175  168  169 1   
   176  168  170 1   
   177  177  178 1   
   178  177  182 1   
   179  178  179 1   
   180  178  180 1   
   181  178  181 1   
   182  184  185 1   
   183  184  186 1   
@<TRIPOS>SUBSTRUCTURE
     1 MOL         1 TEMP              0 ****  ****    0 ROOT
