@<TRIPOS>MOLECULE
MOL
  198   191     1     0     0
SMALL
resp


@<TRIPOS>ATOM
      1 C1          5.2400    5.4940   -3.8710 c3        1 MOL     -0.375624
      2 C2          6.3930    5.5170   -2.8130 c         1 MOL      0.658184
      3 O1          6.5600    6.3490   -1.9180 o         1 MOL     -0.573511
      4 H1          4.4700    4.7900   -3.5540 hc        1 MOL      0.097347
      5 H2          4.8070    6.4900   -3.9590 hc        1 MOL      0.097347
      6 H3          5.6380    5.1830   -4.8370 hc        1 MOL      0.097347
      7 N1          7.3620    4.6350   -3.0170 n         1 MOL     -0.672728
      8 C3          8.6370    4.4430   -2.2960 c3        1 MOL      0.485480
      9 C4          8.6070    3.7160   -0.9300 c         1 MOL      0.398048
     10 O2          7.5810    3.8260   -0.2500 o         1 MOL     -0.530007
     11 C5          9.4930    5.7400   -2.2400 c3        1 MOL     -0.300180
     12 C6         11.0070    5.4770   -2.3320 c         1 MOL      0.590062
     13 O3         11.8450    6.3390   -2.3800 o         1 MOL     -0.654413
     14 O4         11.4100    4.2560   -2.5420 o         1 MOL     -0.654413
     15 H4          7.1120    3.9230   -3.6830 hn        1 MOL      0.311990
     16 H5          9.1380    3.7310   -2.9630 h1        1 MOL     -0.049610
     17 H6          9.2740    6.3630   -1.3730 hc        1 MOL      0.093578
     18 H7          9.2590    6.3950   -3.0810 hc        1 MOL      0.093578
     19 N2          9.7220    3.1940   -0.5190 n         1 MOL     -0.272666
     20 C7         10.0400    2.3470    0.6620 c3        1 MOL      0.153627
     21 C8          9.2430    1.0420    0.8750 c         1 MOL      0.489526
     22 O5          9.8990    0.1620    1.5060 o         1 MOL     -0.543462
     23 C9          9.9580    3.2440    1.9470 c3        1 MOL     -0.180685
     24 C10        11.1340    4.2670    1.9480 c3        1 MOL     -0.021310
     25 C11        11.2390    5.0450    3.2760 c3        1 MOL     -0.321294
     26 C12        12.4570    5.9710    3.3650 c3        1 MOL      0.234766
     27 N3         12.3380    6.7310    4.6290 n4        1 MOL     -0.385542
     28 H8         10.4640    3.2650   -1.2070 hn        1 MOL      0.098736
     29 H9         11.0900    2.0740    0.6150 h1        1 MOL      0.074045
     30 H10        10.1050    2.5380    2.7600 hc        1 MOL      0.077119
     31 H11         8.9930    3.7480    2.0390 hc        1 MOL      0.077119
     32 H12        10.7960    5.0340    1.2460 hc        1 MOL      0.070351
     33 H13        12.1080    3.8950    1.6360 hc        1 MOL      0.070351
     34 H14        11.2760    4.3030    4.0720 hc        1 MOL      0.106313
     35 H15        10.3540    5.6760    3.2480 hc        1 MOL      0.106313
     36 H16        12.5080    6.6510    2.5160 hx        1 MOL      0.051027
     37 H17        13.3740    5.3820    3.4020 hx        1 MOL      0.051027
     38 H18        12.5540    6.0640    5.3680 hn        1 MOL      0.323085
     39 H19        12.9620    7.5180    4.6440 hn        1 MOL      0.323085
     40 H20        11.4020    7.0850    4.8020 hn        1 MOL      0.323085
     41 N4          7.9670    0.9300    0.3100 n         1 MOL     -0.684309
     42 C13         7.0580   -0.2530    0.5230 c3        1 MOL      0.694221
     43 C14         6.3330   -0.5610   -0.8380 c         1 MOL      0.430049
     44 O6          5.6650    0.3490   -1.2640 o         1 MOL     -0.573321
     45 C15         6.2450   -0.0030    1.7810 c3        1 MOL     -0.308443
     46 C16         5.2700   -1.0620    2.2260 c         1 MOL      0.640810
     47 O7          4.7060   -0.9510    3.3330 o         1 MOL     -0.698172
     48 O8          4.9900   -2.0270    1.5000 o         1 MOL     -0.698172
     49 H21         7.4860    1.6810   -0.1520 hn        1 MOL      0.271556
     50 H22         7.7050   -1.1040    0.7420 h1        1 MOL     -0.053416
     51 H23         5.6310    0.8920    1.6810 hc        1 MOL      0.069104
     52 H24         6.9770    0.1520    2.5840 hc        1 MOL      0.069104
     53 N5          6.4220   -1.6740   -1.5610 n         1 MOL     -0.455175
     54 C17         7.4190   -2.7890   -1.3780 c3        1 MOL     -0.070831
     55 C18         6.8470   -4.2100   -1.0180 c         1 MOL      0.468777
     56 O9          7.3650   -5.2140   -1.4820 o         1 MOL     -0.554938
     57 H25         5.8940   -1.6320   -2.4290 hn        1 MOL      0.330227
     58 H26         8.2210   -2.4790   -0.7010 h1        1 MOL      0.088172
     59 H27         7.8920   -2.8190   -2.3530 h1        1 MOL      0.088172
     60 N6          5.7330   -4.3120   -0.3050 n         1 MOL      0.084528
     61 C19         4.9620   -5.5520   -0.1010 c3        1 MOL     -0.161529
     62 C20         3.4600   -5.3520    0.0510 c         1 MOL      0.358322
     63 O10         2.9530   -4.3670    0.5090 o         1 MOL     -0.457707
     64 C21         5.4600   -6.3610    1.0220 c3        1 MOL      0.064477
     65 C22         5.6970   -5.5630    2.3010 c         1 MOL      0.453696
     66 O11         4.8350   -4.7420    2.7080 o         1 MOL     -0.640381
     67 O12         6.7650   -5.8320    2.9390 o         1 MOL     -0.640381
     68 H28         5.2980   -3.4870    0.0940 hn        1 MOL     -0.029932
     69 H29         5.1130   -6.1640   -0.9910 h1        1 MOL      0.049985
     70 H30         6.4060   -6.8210    0.7200 hc        1 MOL      0.018221
     71 H31         4.8290   -7.2120    1.2720 hc        1 MOL      0.018221
     72 N7          2.7200   -6.3700   -0.3470 n         1 MOL     -0.331346
     73 C23         1.2730   -6.3700   -0.4790 c3        1 MOL      0.138902
     74 C24         0.5810   -5.5340   -1.5020 c         1 MOL      0.339044
     75 O13        -0.1500   -6.0630   -2.3500 o         1 MOL     -0.496790
     76 H32         3.0860   -7.3120   -0.3990 hn        1 MOL      0.289638
     77 H33         0.8100   -6.1610    0.4860 h1        1 MOL      0.016198
     78 H34         0.9230   -7.3920   -0.6470 h1        1 MOL      0.016198
     79 N8          0.7310   -4.1550   -1.4400 n         1 MOL     -0.030736
     80 C25         0.1570   -3.1580   -2.3900 c3        1 MOL     -0.075348
     81 C26        -0.4040   -1.9520   -1.7020 c         1 MOL      0.218093
     82 O14        -0.1270   -1.6430   -0.5770 o         1 MOL     -0.447882
     83 C27         1.2090   -2.5910   -3.3690 c3        1 MOL      0.474722
     84 C28         2.3140   -1.8430   -2.6410 c3        1 MOL     -0.243130
     85 O15         1.8330   -3.6720   -4.0710 oh        1 MOL     -0.606562
     86 H35         1.1920   -3.7750   -0.6270 hn        1 MOL      0.031906
     87 H36        -0.6710   -3.6490   -2.8960 h1        1 MOL      0.039923
     88 H37         0.7180   -1.9400   -4.0930 h1        1 MOL     -0.079938
     89 H38         1.1940   -3.9510   -4.7230 ho        1 MOL      0.376454
     90 H39         2.0550   -0.7890   -2.6550 hc        1 MOL      0.065290
     91 H40         2.4950   -2.2730   -1.6580 hc        1 MOL      0.065290
     92 H41         3.2130   -1.9690   -3.2410 hc        1 MOL      0.065290
     93 N9         -1.1870   -1.2100   -2.4330 n         1 MOL      0.008984
     94 C29        -1.6190    0.1490   -2.1510 c3        1 MOL     -0.439618
     95 C30        -2.8810    0.1630   -1.2900 c         1 MOL      0.618041
     96 O16        -3.0990    1.1040   -0.5140 o         1 MOL     -0.525563
     97 C31        -1.8380    0.9690   -3.4670 c3        1 MOL      0.140719
     98 C32        -0.5050    0.9220   -4.2950 c3        1 MOL      0.041054
     99 C33        -2.2300    2.4230   -3.1780 c3        1 MOL     -0.206801
    100 C34        -0.5690    1.6390   -5.5750 c3        1 MOL     -0.427668
    101 H42        -1.3310   -1.4740   -3.3980 hn        1 MOL      0.178646
    102 H43        -0.8290    0.6700   -1.6050 h1        1 MOL      0.172168
    103 H44        -2.6150    0.5670   -4.1250 hc        1 MOL      0.024275
    104 H45        -0.2620   -0.1070   -4.5690 hc        1 MOL      0.054551
    105 H46         0.3450    1.3210   -3.7250 hc        1 MOL      0.054551
    106 H47        -3.1260    2.4220   -2.5610 hc        1 MOL      0.072999
    107 H48        -1.4250    3.0360   -2.7570 hc        1 MOL      0.072999
    108 H49        -2.5600    2.9550   -4.0780 hc        1 MOL      0.072999
    109 H50        -0.3770    2.6710   -5.2900 hc        1 MOL      0.108166
    110 H51         0.2110    1.3790   -6.2890 hc        1 MOL      0.108166
    111 H52        -1.5370    1.5780   -6.0810 hc        1 MOL      0.108166
    112 N10        -3.7490   -0.8450   -1.3430 n         1 MOL     -0.285177
    113 C35        -4.8670   -1.0580   -0.4560 c3        1 MOL      0.015217
    114 C36        -6.0470   -1.5710   -1.2640 c         1 MOL      0.555621
    115 O17        -5.8430   -1.9610   -2.3800 o         1 MOL     -0.518453
    116 C37        -4.5680   -1.8990    0.7570 c3        1 MOL      0.438338
    117 C38        -3.6870   -3.1020    0.5720 c3        1 MOL     -0.318978
    118 O18        -3.8790   -1.0570    1.7000 oh        1 MOL     -0.597364
    119 H53        -3.6730   -1.5710   -2.0380 hn        1 MOL      0.160206
    120 H54        -5.1620   -0.0740   -0.0930 h1        1 MOL      0.030044
    121 H55        -5.5560   -2.1400    1.1670 h1        1 MOL     -0.047885
    122 H56        -4.3790   -1.1290    2.5190 ho        1 MOL      0.364509
    123 H57        -4.3370   -3.9200    0.2490 hc        1 MOL      0.075591
    124 H58        -2.8900   -2.9050   -0.1480 hc        1 MOL      0.075591
    125 H59        -3.1560   -3.3460    1.4880 hc        1 MOL      0.075591
    126 N11        -7.3110   -1.5370   -0.7860 n         1 MOL     -0.461437
    127 C39        -8.4970   -1.9230   -1.6200 c3        1 MOL     -0.102637
    128 C40        -9.7550   -1.0260   -1.4490 c         1 MOL      0.623308
    129 O19       -10.5510   -0.8540   -2.3560 o         1 MOL     -0.537001
    130 C41        -8.7670   -3.4470   -1.3790 c3        1 MOL      0.265509
    131 C42        -9.8480   -4.0360   -2.2780 c3        1 MOL     -0.397404
    132 O20        -9.1350   -3.6650    0.0030 oh        1 MOL     -0.626143
    133 H60        -7.4900   -1.2220    0.1630 hn        1 MOL      0.256483
    134 H61        -8.1940   -1.8860   -2.6690 h1        1 MOL      0.127076
    135 H62        -7.8250   -3.9720   -1.5160 h1        1 MOL      0.102417
    136 H63       -10.0760   -3.5130    0.1500 ho        1 MOL      0.384060
    137 H64       -10.1690   -5.0480   -2.0200 hc        1 MOL      0.112877
    138 H65       -10.6900   -3.3370   -2.2580 hc        1 MOL      0.112877
    139 H66        -9.5210   -4.0450   -3.3180 hc        1 MOL      0.112877
    140 N12        -9.8850   -0.4400   -0.2610 n         1 MOL     -0.462049
    141 C43       -10.8190    0.7040   -0.0540 c3        1 MOL      0.007726
    142 C44       -10.4840    1.6100    1.1180 c         1 MOL      0.306646
    143 O21       -10.3480    1.0780    2.2600 o         1 MOL     -0.495059
    144 C45       -12.2730    0.3130    0.1350 c3        1 MOL     -0.234498
    145 C46       -13.2640    1.5150    0.3040 c3        1 MOL      0.155283
    146 C47       -14.6990    1.1480    0.4410 c3        1 MOL      0.050271
    147 C48       -14.9270    0.2880    1.6070 c3        1 MOL      0.015009
    148 N13       -16.2920   -0.1710    1.6650 n4        1 MOL     -0.310064
    149 H67        -9.2590   -0.7070    0.4790 hn        1 MOL      0.316319
    150 H68       -10.7940    1.2870   -0.9820 h1        1 MOL      0.098459
    151 H69       -12.4470   -0.4160    0.9280 hc        1 MOL      0.079002
    152 H70       -12.6580   -0.1420   -0.7700 hc        1 MOL      0.079002
    153 H71       -13.1500    2.1670   -0.5640 hc        1 MOL     -0.017295
    154 H72       -13.0060    2.1060    1.1830 hc        1 MOL     -0.017295
    155 H73       -15.0260    0.7100   -0.5010 hc        1 MOL      0.001645
    156 H74       -15.0660    2.1770    0.5620 hc        1 MOL      0.001645
    157 H75       -14.7420    0.8370    2.5290 hx        1 MOL      0.089274
    158 H76       -14.1870   -0.5020    1.4990 hx        1 MOL      0.089274
    159 H77       -16.4580   -0.7920    2.4360 hn        1 MOL      0.258123
    160 H78       -16.8960    0.6310    1.8000 hn        1 MOL      0.258123
    161 H79       -16.5010   -0.6670    0.8110 hn        1 MOL      0.258123
    162 N14       -10.3750    2.9140    0.8990 n         1 MOL     -0.234582
    163 C49        -9.8260    3.8370    1.9520 c3        1 MOL      0.357085
    164 C50        -8.3090    3.3880    2.2920 c         1 MOL      0.322324
    165 O22        -8.0480    3.2190    3.4870 o         1 MOL     -0.509897
    166 C51       -10.0840    5.3360    1.5330 c3        1 MOL     -0.225744
    167 C52       -11.5280    5.7780    1.7100 c3        1 MOL     -0.279501
    168 C53       -11.7270    7.1970    1.2830 c         1 MOL      0.711567
    169 O23       -11.2250    8.1370    1.8850 o         1 MOL     -0.645714
    170 O24       -12.6000    7.5150    0.4150 o         1 MOL     -0.645714
    171 H80       -10.6590    3.2810    0.0060 hn        1 MOL      0.223109
    172 H81       -10.4580    3.6500    2.8170 h1        1 MOL     -0.003718
    173 H82        -9.7360    5.6180    0.5360 hc        1 MOL      0.097558
    174 H83        -9.4810    5.9060    2.2430 hc        1 MOL      0.097558
    175 H84       -11.8670    5.6990    2.7410 hc        1 MOL      0.070957
    176 H85       -12.1560    5.0370    1.2150 hc        1 MOL      0.070957
    177 N15        -7.4260    3.2120    1.3240 n         1 MOL     -0.292926
    178 C54        -7.5690    3.6220   -0.0170 c3        1 MOL      0.063801
    179 H86        -6.6320    4.0530   -0.3670 h1        1 MOL      0.006849
    180 H87        -7.8260    2.7610   -0.6350 h1        1 MOL      0.006849
    181 H88        -8.3610    4.3680   -0.0860 h1        1 MOL      0.006849
    182 H89        -6.5490    2.8030    1.5930 hn        1 MOL      0.276457
    183 Ca1         2.9160   -2.9160    2.6040 Ca        1 MOL      1.913979
    184 O25         2.2660   -1.2240    0.7640 oh        1 MOL     -0.902371
    185 H90         2.5210   -0.3960    0.3540 ho        1 MOL      0.435030
    186 H91         1.4370   -1.4490    0.3440 ho        1 MOL      0.435030
    187 O26         2.0550   -4.9410    4.0780 oh        1 MOL     -0.902371
    188 H92         1.9520   -4.9960    5.0250 ho        1 MOL      0.435030
    189 H93         1.9400   -5.8440    3.7730 ho        1 MOL      0.435030
    190 O27         0.5000   -3.3070    1.7470 oh        1 MOL     -0.902371
    191 H94         0.0290   -4.1370    1.8160 ho        1 MOL      0.435030
    192 H95        -0.1760   -2.6340    1.8010 ho        1 MOL      0.435030
    193 O28         1.8390   -1.3160    4.3200 oh        1 MOL     -0.902371
    194 H96         1.7310   -1.4160    5.2670 ho        1 MOL      0.435030
    195 H97         1.6290   -0.3930    4.1580 ho        1 MOL      0.435030
    196 O29         4.7240   -3.3500    4.9220 oh        1 MOL     -0.902371
    197 H98         5.5790   -2.9410    5.0290 ho        1 MOL      0.435030
    198 H99         4.9080   -4.1910    4.5050 ho        1 MOL      0.435030
@<TRIPOS>BOND
     1    1    2 1   
     2    1    4 1   
     3    1    5 1   
     4    1    6 1   
     5    2    3 2   
     6    2    7 1   
     7    7    8 1   
     8    7   15 1   
     9    8    9 1   
    10    8   11 1   
    11    8   16 1   
    12    9   10 2   
    13    9   19 1   
    14   11   12 1   
    15   11   17 1   
    16   11   18 1   
    17   12   13 1   
    18   12   14 1   
    19   19   20 1   
    20   19   28 1   
    21   20   21 1   
    22   20   23 1   
    23   20   29 1   
    24   21   22 2   
    25   21   41 1   
    26   23   24 1   
    27   23   30 1   
    28   23   31 1   
    29   24   25 1   
    30   24   32 1   
    31   24   33 1   
    32   25   26 1   
    33   25   34 1   
    34   25   35 1   
    35   26   27 1   
    36   26   36 1   
    37   26   37 1   
    38   27   38 1   
    39   27   39 1   
    40   27   40 1   
    41   41   42 1   
    42   41   49 1   
    43   42   43 1   
    44   42   45 1   
    45   42   50 1   
    46   43   44 2   
    47   43   53 1   
    48   45   46 1   
    49   45   51 1   
    50   45   52 1   
    51   46   47 1   
    52   46   48 1   
    53   53   54 1   
    54   53   57 1   
    55   54   55 1   
    56   54   58 1   
    57   54   59 1   
    58   55   56 2   
    59   55   60 1   
    60   60   61 1   
    61   60   68 1   
    62   61   62 1   
    63   61   64 1   
    64   61   69 1   
    65   62   63 2   
    66   62   72 1   
    67   64   65 1   
    68   64   70 1   
    69   64   71 1   
    70   65   66 1   
    71   65   67 1   
    72   72   73 1   
    73   72   76 1   
    74   73   74 1   
    75   73   77 1   
    76   73   78 1   
    77   74   75 2   
    78   74   79 1   
    79   79   80 1   
    80   79   86 1   
    81   80   81 1   
    82   80   83 1   
    83   80   87 1   
    84   81   82 2   
    85   81   93 1   
    86   83   84 1   
    87   83   85 1   
    88   83   88 1   
    89   84   90 1   
    90   84   91 1   
    91   84   92 1   
    92   85   89 1   
    93   93   94 1   
    94   93  101 1   
    95   94   95 1   
    96   94   97 1   
    97   94  102 1   
    98   95   96 2   
    99   95  112 1   
   100   97   98 1   
   101   97   99 1   
   102   97  103 1   
   103   98  100 1   
   104   98  104 1   
   105   98  105 1   
   106   99  106 1   
   107   99  107 1   
   108   99  108 1   
   109  100  109 1   
   110  100  110 1   
   111  100  111 1   
   112  112  113 1   
   113  112  119 1   
   114  113  114 1   
   115  113  116 1   
   116  113  120 1   
   117  114  115 2   
   118  114  126 1   
   119  116  117 1   
   120  116  118 1   
   121  116  121 1   
   122  117  123 1   
   123  117  124 1   
   124  117  125 1   
   125  118  122 1   
   126  126  127 1   
   127  126  133 1   
   128  127  128 1   
   129  127  130 1   
   130  127  134 1   
   131  128  129 2   
   132  128  140 1   
   133  130  131 1   
   134  130  132 1   
   135  130  135 1   
   136  131  137 1   
   137  131  138 1   
   138  131  139 1   
   139  132  136 1   
   140  140  141 1   
   141  140  149 1   
   142  141  142 1   
   143  141  144 1   
   144  141  150 1   
   145  142  143 2   
   146  142  162 1   
   147  144  145 1   
   148  144  151 1   
   149  144  152 1   
   150  145  146 1   
   151  145  153 1   
   152  145  154 1   
   153  146  147 1   
   154  146  155 1   
   155  146  156 1   
   156  147  148 1   
   157  147  157 1   
   158  147  158 1   
   159  148  159 1   
   160  148  160 1   
   161  148  161 1   
   162  162  163 1   
   163  162  171 1   
   164  163  164 1   
   165  163  166 1   
   166  163  172 1   
   167  164  165 2   
   168  164  177 1   
   169  166  167 1   
   170  166  173 1   
   171  166  174 1   
   172  167  168 1   
   173  167  175 1   
   174  167  176 1   
   175  168  169 1   
   176  168  170 1   
   177  177  178 1   
   178  177  182 1   
   179  178  179 1   
   180  178  180 1   
   181  178  181 1   
   182  184  185 1   
   183  184  186 1   
   184  187  188 1   
   185  187  189 1   
   186  190  191 1   
   187  190  192 1   
   188  193  194 1   
   189  193  195 1   
   190  196  197 1   
   191  196  198 1   
@<TRIPOS>SUBSTRUCTURE
     1 MOL         1 TEMP              0 ****  ****    0 ROOT
