@<TRIPOS>MOLECULE
MOL
  175   173     1     0     0
SMALL
resp


@<TRIPOS>ATOM
      1 C1          6.5310   -7.0620    2.2300 c3        1 MOL     -0.410977
      2 C2          7.4060   -6.5560    1.1270 c         1 MOL      0.733661
      3 O1          7.2060   -7.0300    0.0300 o         1 MOL     -0.594366
      4 H1          5.5380   -6.6230    2.1370 hc        1 MOL      0.089951
      5 H2          6.4550   -8.1480    2.1660 hc        1 MOL      0.089951
      6 H3          6.9610   -6.7830    3.1920 hc        1 MOL      0.089951
      7 N1          8.3390   -5.6400    1.4380 n         1 MOL     -0.434977
      8 C3          9.3010   -5.1920    0.4750 c3        1 MOL     -0.040365
      9 C4          8.7400   -3.9890   -0.3550 c         1 MOL      0.526623
     10 O2          9.5020   -3.4080   -1.1260 o         1 MOL     -0.478623
     11 C5         10.5850   -4.8800    1.2360 c3        1 MOL     -0.071235
     12 C6         11.7730   -4.6270    0.3050 c         1 MOL      0.686607
     13 O3         12.0870   -3.4580   -0.0320 o         1 MOL     -0.725676
     14 O4         12.4960   -5.6470    0.1220 o         1 MOL     -0.725676
     15 H4          8.4540   -5.3640    2.4080 hn        1 MOL      0.280301
     16 H5          9.6100   -6.0110   -0.1710 h1        1 MOL      0.088062
     17 H6         10.7360   -5.6870    1.9420 hc        1 MOL     -0.021875
     18 H7         10.4170   -4.0650    1.9500 hc        1 MOL     -0.021875
     19 N2          7.4440   -3.6910   -0.2520 n         1 MOL     -0.470061
     20 C7          6.6680   -2.7910   -1.0640 c3        1 MOL      0.408767
     21 C8          5.4130   -2.2070   -0.3610 c         1 MOL      0.469065
     22 O5          4.8910   -2.8100    0.5910 o         1 MOL     -0.577320
     23 C9          6.4350   -3.5320   -2.3580 c3        1 MOL     -0.410685
     24 H8          6.9620   -4.1170    0.5250 hn        1 MOL      0.176221
     25 H9          7.3030   -1.9020   -1.1380 h1        1 MOL     -0.053436
     26 H10         6.1440   -4.5660   -2.1550 hc        1 MOL      0.107817
     27 H11         5.5180   -3.1060   -2.7570 hc        1 MOL      0.107817
     28 H12         7.2760   -3.5830   -3.0400 hc        1 MOL      0.107817
     29 N3          4.9100   -1.0730   -0.6660 n         1 MOL     -0.322249
     30 C10         5.2830   -0.1010   -1.6840 c3        1 MOL     -0.015708
     31 C11         5.6120    1.2540   -0.9720 c         1 MOL      0.586271
     32 O6          5.0900    1.5300    0.0970 o         1 MOL     -0.562579
     33 C12         4.2130    0.0510   -2.7930 c3        1 MOL     -0.135230
     34 C13         2.8060    0.4260   -2.2360 c         1 MOL      0.769618
     35 O7          2.0600    1.0980   -2.9890 o         1 MOL     -0.726146
     36 O8          2.4150    0.0010   -1.1500 o         1 MOL     -0.726146
     37 H13         4.0590   -0.8190   -0.1770 hn        1 MOL      0.262095
     38 H14         6.1520   -0.4540   -2.2400 h1        1 MOL      0.047170
     39 H15         4.1050   -0.8790   -3.3540 hc        1 MOL      0.017166
     40 H16         4.4450    0.8850   -3.4630 hc        1 MOL      0.017166
     41 N4          6.4510    2.1100   -1.5800 n         1 MOL     -0.484928
     42 C14         6.8590    3.3940   -1.0140 c3        1 MOL      0.168484
     43 C15         6.6090    4.5110   -1.9480 c         1 MOL      0.539912
     44 O9          7.6280    5.0040   -2.4260 o         1 MOL     -0.561079
     45 H17         6.9290    1.9130   -2.4500 hn        1 MOL      0.298023
     46 H18         7.9200    3.3300   -0.7660 h1        1 MOL      0.024154
     47 H19         6.2880    3.6680   -0.1240 h1        1 MOL      0.024154
     48 N5          5.3670    5.0190   -2.2030 n         1 MOL     -0.581663
     49 C16         4.0680    4.7100   -1.5350 c3        1 MOL      0.111798
     50 C17         4.0700    5.3620   -0.1730 c         1 MOL      0.572862
     51 O10         4.3210    6.5590   -0.0050 o         1 MOL     -0.565893
     52 C18         2.8490    5.1000   -2.4210 c3        1 MOL     -0.176710
     53 C19         1.5530    4.5020   -1.9170 c         1 MOL      0.687407
     54 N6          0.3600    4.9830   -2.2550 n         1 MOL     -0.785093
     55 O11         1.6370    3.5240   -1.2050 o         1 MOL     -0.654605
     56 H20         5.3500    5.6760   -2.9750 hn        1 MOL      0.319076
     57 H21         4.0790    3.6300   -1.3970 h1        1 MOL      0.073016
     58 H22         3.0410    4.7130   -3.4240 hc        1 MOL      0.077145
     59 H23         2.7950    6.1830   -2.5290 hc        1 MOL      0.077145
     60 H24         0.1300    5.9010   -2.6200 hn        1 MOL      0.352966
     61 H25        -0.4300    4.4340   -1.9560 hn        1 MOL      0.352966
     62 N7          3.6450    4.5990    0.8430 n         1 MOL     -0.298175
     63 C20         3.4070    5.0920    2.2460 c3        1 MOL     -0.232608
     64 C21         1.9790    5.4140    2.6440 c         1 MOL      0.534467
     65 O12         1.7610    5.7510    3.7610 o         1 MOL     -0.560930
     66 H26         3.3700    3.6510    0.6510 hn        1 MOL      0.250226
     67 H27         3.9370    6.0380    2.3680 h1        1 MOL      0.133291
     68 H28         3.9510    4.4130    2.8970 h1        1 MOL      0.133291
     69 N8          0.9870    5.1370    1.7860 n         1 MOL     -0.227237
     70 C22        -0.4490    5.2510    1.9880 c3        1 MOL      0.054794
     71 C23        -1.0840    3.8620    1.8320 c         1 MOL      0.259640
     72 O13        -0.6480    3.0010    1.0780 o         1 MOL     -0.421556
     73 C24        -1.0900    6.2520    1.0040 c3        1 MOL      0.410489
     74 C25        -2.3590    6.8400    1.4200 c3        1 MOL     -0.325484
     75 O14        -0.2260    7.3560    0.7930 oh        1 MOL     -0.685688
     76 H29         1.2840    4.7950    0.8830 hn        1 MOL      0.135219
     77 H30        -0.6100    5.7290    2.9620 h1        1 MOL      0.025881
     78 H31        -1.1800    5.7100    0.0710 h1        1 MOL      0.040918
     79 H32        -0.1600    7.9070    1.5800 ho        1 MOL      0.407679
     80 H33        -3.0270    6.0020    1.6470 hc        1 MOL      0.072088
     81 H34        -2.2830    7.4200    2.3440 hc        1 MOL      0.072088
     82 H35        -2.8920    7.4230    0.6690 hc        1 MOL      0.072088
     83 N9         -2.1580    3.6360    2.6270 n         1 MOL     -0.150751
     84 C26        -3.0240    2.5100    2.6660 c3        1 MOL     -0.041280
     85 C27        -4.2720    2.7540    1.7520 c         1 MOL      0.276822
     86 O15        -5.1530    3.6020    2.0360 o         1 MOL     -0.541689
     87 C28        -3.3160    1.9470    4.0860 c3        1 MOL      0.241639
     88 C29        -3.7230    0.4950    4.1390 c3        1 MOL     -0.095044
     89 C30        -2.0480    2.1890    5.0300 c3        1 MOL     -0.348995
     90 C31        -5.2340    0.3450    4.0740 c3        1 MOL     -0.199374
     91 H36        -2.5230    4.3480    3.2530 hn        1 MOL      0.202653
     92 H37        -2.4940    1.6690    2.2330 h1        1 MOL      0.116708
     93 H38        -4.1420    2.5340    4.4740 hc        1 MOL     -0.032271
     94 H39        -3.3230    0.0820    5.0660 hc        1 MOL      0.036770
     95 H40        -3.2230   -0.0360    3.3280 hc        1 MOL      0.036770
     96 H41        -2.2280    1.9430    6.0740 hc        1 MOL      0.079436
     97 H42        -1.2350    1.6330    4.5800 hc        1 MOL      0.079436
     98 H43        -1.6600    3.2110    4.9930 hc        1 MOL      0.079436
     99 H44        -5.7490    0.9680    4.7990 hc        1 MOL      0.054817
    100 H45        -5.6640    0.5880    3.0920 hc        1 MOL      0.054817
    101 H46        -5.5890   -0.6430    4.3650 hc        1 MOL      0.054817
    102 N10        -4.1670    2.2040    0.5350 n         1 MOL     -0.053769
    103 C32        -4.9270    2.5960   -0.6160 c3        1 MOL      0.128002
    104 C33        -5.8500    1.5240   -1.3320 c         1 MOL      0.565875
    105 O16        -6.1400    1.5140   -2.4820 o         1 MOL     -0.534995
    106 C34        -3.9420    3.3640   -1.5770 c3        1 MOL     -0.140626
    107 C35        -2.6410    2.5940   -1.8580 c         1 MOL      0.581660
    108 O17        -2.7000    1.5630   -2.5340 o         1 MOL     -0.622121
    109 O18        -1.4910    3.0050   -1.5030 o         1 MOL     -0.622121
    110 H47        -3.4000    1.5750    0.3630 hn        1 MOL      0.085857
    111 H48        -5.6760    3.3310   -0.3260 h1        1 MOL      0.023051
    112 H49        -3.7380    4.3690   -1.2140 hc        1 MOL      0.025574
    113 H50        -4.4510    3.3640   -2.5420 hc        1 MOL      0.025574
    114 N11        -6.3650    0.6020   -0.5380 n         1 MOL     -0.615619
    115 C36        -7.0500   -0.6010   -1.0410 c3        1 MOL      0.522044
    116 C37        -6.5490   -1.8780   -0.3810 c         1 MOL      0.287279
    117 O19        -6.3940   -1.8050    0.8320 o         1 MOL     -0.539335
    118 C38        -8.6070   -0.5200   -0.9130 c3        1 MOL     -0.397442
    119 C39        -9.4820   -1.5670   -1.6070 ca        1 MOL      0.178836
    120 C40        -9.8060   -2.7650   -0.9030 ca        1 MOL     -0.181426
    121 C41       -10.0070   -1.3810   -2.8460 ca        1 MOL     -0.181426
    122 C42       -10.5040   -3.7910   -1.5270 ca        1 MOL     -0.110909
    123 C43       -10.7310   -2.4290   -3.4970 ca        1 MOL     -0.110909
    124 C44       -10.9360   -3.6590   -2.8810 ca        1 MOL     -0.125381
    125 H51        -6.1760    0.5740    0.4540 hn        1 MOL      0.276330
    126 H52        -6.8090   -0.7020   -2.0970 h1        1 MOL     -0.037508
    127 H53        -8.8880    0.4400   -1.3670 hc        1 MOL      0.117492
    128 H54        -8.7880   -0.4520    0.1620 hc        1 MOL      0.117492
    129 H55        -9.4070   -2.8470    0.1020 ha        1 MOL      0.126234
    130 H56        -9.7640   -0.4930   -3.4130 ha        1 MOL      0.126234
    131 H57       -10.6720   -4.7340   -1.0440 ha        1 MOL      0.108186
    132 H58       -11.0770   -2.2680   -4.5100 ha        1 MOL      0.108186
    133 H59       -11.3900   -4.4800   -3.4080 ha        1 MOL      0.112665
    134 N12        -6.5060   -3.0190   -1.0390 n         1 MOL      0.059072
    135 C45        -6.6970   -4.3360   -0.3820 c3        1 MOL     -0.086565
    136 C46        -5.4600   -4.8570    0.3570 c         1 MOL      0.476444
    137 O20        -5.4700   -5.9190    0.9540 o         1 MOL     -0.566863
    138 C47        -7.1780   -5.2190   -1.5990 c3        1 MOL     -0.093878
    139 C48        -6.4100   -4.5800   -2.7420 c3        1 MOL      0.022141
    140 C49        -6.5070   -3.0710   -2.4790 c3        1 MOL     -0.278176
    141 H60        -7.4800   -4.2310    0.3590 h1        1 MOL      0.080533
    142 H61        -6.8630   -6.2570   -1.4610 hc        1 MOL      0.059842
    143 H62        -8.2700   -5.2190   -1.6530 hc        1 MOL      0.059842
    144 H63        -5.3910   -4.8670   -2.4930 hc        1 MOL      0.022935
    145 H64        -6.7170   -4.9070   -3.7470 hc        1 MOL      0.022935
    146 H65        -5.6820   -2.5060   -2.9160 h1        1 MOL      0.123406
    147 H66        -7.4610   -2.7380   -2.8960 h1        1 MOL      0.123406
    148 N13        -4.3620   -4.1070    0.3600 n         1 MOL     -0.125399
    149 C50        -3.0220   -4.4230    0.8670 c3        1 MOL     -0.147270
    150 C51        -2.9890   -4.7820    2.3520 c         1 MOL      0.487919
    151 O21        -2.1260   -5.5020    2.8630 o         1 MOL     -0.531507
    152 C52        -2.0730   -3.3090    0.4840 c3        1 MOL     -0.096488
    153 C53        -2.4100   -1.9970    1.1570 c3        1 MOL      0.246733
    154 C54        -1.5750   -0.8650    0.6190 c         1 MOL      0.596894
    155 O22        -2.1390    0.1220    0.1120 o         1 MOL     -0.731068
    156 O23        -0.3360   -0.8300    0.7260 o         1 MOL     -0.731068
    157 H67        -4.5080   -3.2660   -0.1790 hn        1 MOL      0.132863
    158 H68        -2.6150   -5.2540    0.2880 h1        1 MOL      0.107820
    159 H69        -2.0680   -3.1140   -0.5880 hc        1 MOL      0.043911
    160 H70        -1.0840   -3.5870    0.8610 hc        1 MOL      0.043911
    161 H71        -2.2590   -2.1420    2.2270 hc        1 MOL     -0.068960
    162 H72        -3.4750   -1.7600    1.0900 hc        1 MOL     -0.068960
    163 N14        -4.0500   -4.4100    3.0890 n         1 MOL     -0.118183
    164 C55        -4.2170   -4.7740    4.4970 c3        1 MOL     -0.152297
    165 H73        -5.2800   -4.8270    4.7350 h1        1 MOL      0.074810
    166 H74        -3.7570   -5.7450    4.6780 h1        1 MOL      0.074810
    167 H75        -3.7410   -4.0220    5.1260 h1        1 MOL      0.074810
    168 H76        -4.6940   -3.7760    2.6300 hn        1 MOL      0.159439
    169 Ca1         0.1810    1.2110   -0.7380 Ca        1 MOL      1.694057
    170 O24        -0.4730   -0.6260   -2.5430 oh        1 MOL     -0.812139
    171 H77        -0.3270   -1.5590   -2.3650 ho        1 MOL      0.407053
    172 H78        -1.1190   -0.6220   -3.2480 ho        1 MOL      0.407053
    173 O25         2.0250    1.4780    1.2230 oh        1 MOL     -0.812139
    174 H79         2.9340    1.3090    0.9730 ho        1 MOL      0.407053
    175 H80         1.9010    0.9730    2.0280 ho        1 MOL      0.407053
@<TRIPOS>BOND
     1    1    2 1   
     2    1    4 1   
     3    1    5 1   
     4    1    6 1   
     5    2    3 2   
     6    2    7 1   
     7    7    8 1   
     8    7   15 1   
     9    8    9 1   
    10    8   11 1   
    11    8   16 1   
    12    9   10 2   
    13    9   19 1   
    14   11   12 1   
    15   11   17 1   
    16   11   18 1   
    17   12   13 1   
    18   12   14 1   
    19   19   20 1   
    20   19   24 1   
    21   20   21 1   
    22   20   23 1   
    23   20   25 1   
    24   21   22 2   
    25   21   29 1   
    26   23   26 1   
    27   23   27 1   
    28   23   28 1   
    29   29   30 1   
    30   29   37 1   
    31   30   31 1   
    32   30   33 1   
    33   30   38 1   
    34   31   32 2   
    35   31   41 1   
    36   33   34 1   
    37   33   39 1   
    38   33   40 1   
    39   34   35 1   
    40   34   36 1   
    41   41   42 1   
    42   41   45 1   
    43   42   43 1   
    44   42   46 1   
    45   42   47 1   
    46   43   44 2   
    47   43   48 1   
    48   48   49 1   
    49   48   56 1   
    50   49   50 1   
    51   49   52 1   
    52   49   57 1   
    53   50   51 2   
    54   50   62 1   
    55   52   53 1   
    56   52   58 1   
    57   52   59 1   
    58   53   54 1   
    59   53   55 2   
    60   54   60 1   
    61   54   61 1   
    62   62   63 1   
    63   62   66 1   
    64   63   64 1   
    65   63   67 1   
    66   63   68 1   
    67   64   65 2   
    68   64   69 1   
    69   69   70 1   
    70   69   76 1   
    71   70   71 1   
    72   70   73 1   
    73   70   77 1   
    74   71   72 2   
    75   71   83 1   
    76   73   74 1   
    77   73   75 1   
    78   73   78 1   
    79   74   80 1   
    80   74   81 1   
    81   74   82 1   
    82   75   79 1   
    83   83   84 1   
    84   83   91 1   
    85   84   85 1   
    86   84   87 1   
    87   84   92 1   
    88   85   86 2   
    89   85  102 1   
    90   87   88 1   
    91   87   89 1   
    92   87   93 1   
    93   88   90 1   
    94   88   94 1   
    95   88   95 1   
    96   89   96 1   
    97   89   97 1   
    98   89   98 1   
    99   90   99 1   
   100   90  100 1   
   101   90  101 1   
   102  102  103 1   
   103  102  110 1   
   104  103  104 1   
   105  103  106 1   
   106  103  111 1   
   107  104  105 2   
   108  104  114 1   
   109  106  107 1   
   110  106  112 1   
   111  106  113 1   
   112  107  108 1   
   113  107  109 1   
   114  114  115 1   
   115  114  125 1   
   116  115  116 1   
   117  115  118 1   
   118  115  126 1   
   119  116  117 2   
   120  116  134 1   
   121  118  119 1   
   122  118  127 1   
   123  118  128 1   
   124  119  120 ar  
   125  119  121 ar  
   126  120  122 ar  
   127  120  129 1   
   128  121  123 ar  
   129  121  130 1   
   130  122  124 ar  
   131  122  131 1   
   132  123  124 ar  
   133  123  132 1   
   134  124  133 1   
   135  134  135 1   
   136  134  140 1   
   137  135  136 1   
   138  135  138 1   
   139  135  141 1   
   140  136  137 2   
   141  136  148 1   
   142  138  139 1   
   143  138  142 1   
   144  138  143 1   
   145  139  140 1   
   146  139  144 1   
   147  139  145 1   
   148  140  146 1   
   149  140  147 1   
   150  148  149 1   
   151  148  157 1   
   152  149  150 1   
   153  149  152 1   
   154  149  158 1   
   155  150  151 2   
   156  150  163 1   
   157  152  153 1   
   158  152  159 1   
   159  152  160 1   
   160  153  154 1   
   161  153  161 1   
   162  153  162 1   
   163  154  155 1   
   164  154  156 1   
   165  163  164 1   
   166  163  168 1   
   167  164  165 1   
   168  164  166 1   
   169  164  167 1   
   170  170  171 1   
   171  170  172 1   
   172  173  174 1   
   173  173  175 1   
@<TRIPOS>SUBSTRUCTURE
     1 MOL         1 TEMP              0 ****  ****    0 ROOT
