@<TRIPOS>MOLECULE
MOL
  189   185     1     0     0
SMALL
resp


@<TRIPOS>ATOM
      1 C1          5.7770    3.7270   -4.0370 c3        1 MOL     -0.428877
      2 C2          6.1360    2.8340   -2.7960 c         1 MOL      0.870780
      3 O1          5.3890    2.7060   -1.8630 o         1 MOL     -0.625661
      4 H1          4.9880    3.2450   -4.6150 hc        1 MOL      0.103812
      5 H2          5.4330    4.7040   -3.6960 hc        1 MOL      0.103812
      6 H3          6.6600    3.8510   -4.6630 hc        1 MOL      0.103812
      7 N1          7.3300    2.1970   -2.8420 n         1 MOL     -0.796215
      8 C3          7.8760    1.1910   -1.9370 c3        1 MOL      0.251358
      9 C4          6.7410    0.1830   -1.6290 c         1 MOL      0.225080
     10 O2          6.1130    0.2750   -0.5520 o         1 MOL     -0.380366
     11 C5          8.5980    1.8770   -0.7360 c3        1 MOL     -0.192409
     12 C6          7.8950    3.1000   -0.1710 c         1 MOL      0.850864
     13 O3          6.9630    2.9280    0.6120 o         1 MOL     -0.766496
     14 O4          8.3660    4.2110   -0.4690 o         1 MOL     -0.766496
     15 H4          8.0540    2.6470   -3.3870 hn        1 MOL      0.352827
     16 H5          8.7210    0.6710   -2.3980 h1        1 MOL      0.040119
     17 H6          9.6310    2.0930   -1.0010 hc        1 MOL      0.032424
     18 H7          8.7380    1.1280    0.0480 hc        1 MOL      0.032424
     19 N2          6.3860   -0.6900   -2.5660 n         1 MOL     -0.346199
     20 C7          5.3310   -1.7480   -2.6600 c3        1 MOL     -0.065117
     21 C8          5.5570   -2.8590   -1.6310 c         1 MOL      0.431994
     22 O5          5.3600   -4.0370   -1.9530 o         1 MOL     -0.537817
     23 C9          3.8530   -1.2060   -2.6090 c3        1 MOL      0.464053
     24 C10         2.8120   -2.3070   -2.7110 c3        1 MOL     -0.251701
     25 C11         3.5850   -0.0250   -3.5490 c3        1 MOL     -0.128527
     26 C12         2.6770   -3.1250   -3.9910 c3        1 MOL     -0.467350
     27 H8          7.0110   -0.5320   -3.3490 hn        1 MOL      0.256701
     28 H9          5.4850   -2.1500   -3.6640 h1        1 MOL      0.073129
     29 H10         3.7580   -0.8070   -1.5980 hc        1 MOL     -0.221404
     30 H11         1.8440   -1.8750   -2.4780 hc        1 MOL      0.196695
     31 H12         2.9780   -3.0410   -1.9220 hc        1 MOL      0.196695
     32 H13         3.5240   -0.4610   -4.5430 hc        1 MOL      0.005310
     33 H14         2.6470    0.4790   -3.3240 hc        1 MOL      0.005310
     34 H15         4.3870    0.7080   -3.4750 hc        1 MOL      0.005310
     35 H16         2.1100   -2.5390   -4.7220 hc        1 MOL      0.108607
     36 H17         3.6250   -3.4230   -4.4400 hc        1 MOL      0.108607
     37 H18         2.1190   -4.0530   -3.8760 hc        1 MOL      0.108607
     38 N3          6.0090   -2.5740   -0.4380 n         1 MOL     -0.167886
     39 C13         6.4600   -3.6040    0.5630 c3        1 MOL     -0.080213
     40 C14         5.5050   -4.7870    0.7280 c         1 MOL      0.612650
     41 O6          5.8610   -5.9780    0.6310 o         1 MOL     -0.595195
     42 C15         6.9810   -3.0800    1.9240 c3        1 MOL     -0.306502
     43 C16         7.9020   -1.8540    1.8250 c         1 MOL      0.778632
     44 O7          8.9340   -1.9890    1.0650 o         1 MOL     -0.699904
     45 O8          7.8260   -0.8340    2.6050 o         1 MOL     -0.699904
     46 H19         5.8400   -1.6360   -0.1020 hn        1 MOL      0.180328
     47 H20         7.2980   -4.1360    0.1140 h1        1 MOL      0.083336
     48 H21         7.3540   -3.9440    2.4600 hc        1 MOL      0.083784
     49 H22         6.0960   -2.7530    2.4590 hc        1 MOL      0.083784
     50 N4          4.1580   -4.6140    0.9100 n         1 MOL     -0.529943
     51 C17         3.4120   -3.3860    1.2920 c3        1 MOL      0.207678
     52 C18         2.0940   -3.7300    1.9830 c         1 MOL      0.534239
     53 O9          1.6470   -4.8610    1.9730 o         1 MOL     -0.579947
     54 H23         3.6040   -5.4490    0.8880 hn        1 MOL      0.292403
     55 H24         3.2150   -2.9140    0.3200 h1        1 MOL     -0.011532
     56 H25         4.0300   -2.7130    1.8700 h1        1 MOL     -0.011532
     57 N5          1.4940   -2.8590    2.7960 n         1 MOL     -0.365460
     58 C19         1.8880   -1.4300    2.9470 c3        1 MOL      0.104532
     59 C20         2.2530   -0.6790    1.6040 c         1 MOL      0.178457
     60 O10         3.4140   -0.4460    1.2760 o         1 MOL     -0.437154
     61 C21         2.9330   -1.1290    4.0720 c3        1 MOL     -0.320288
     62 C22         3.2820    0.4270    4.2770 c         1 MOL      0.761507
     63 O11         4.3180    0.7220    4.8900 o         1 MOL     -0.675192
     64 O12         2.4830    1.3510    3.9460 o         1 MOL     -0.675192
     65 H26         0.5940   -3.1730    3.1520 hn        1 MOL      0.247577
     66 H27         1.0190   -0.8360    3.2240 h1        1 MOL      0.071171
     67 H28         3.8130   -1.7130    3.8380 hc        1 MOL      0.080454
     68 H29         2.5570   -1.5080    5.0290 hc        1 MOL      0.080454
     69 N6          1.3040   -0.4310    0.6810 n         1 MOL     -0.346759
     70 C23        -0.1250   -0.7480    0.8020 c3        1 MOL      0.003563
     71 C24        -0.4810   -2.1520    0.3150 c         1 MOL      0.650136
     72 O13         0.1560   -2.6460   -0.6150 o         1 MOL     -0.596075
     73 H30         1.6440    0.0380   -0.1480 hn        1 MOL      0.293220
     74 H31        -0.7710   -0.0070    0.3110 h1        1 MOL      0.042146
     75 H32        -0.5200   -0.7020    1.8170 h1        1 MOL      0.042146
     76 N7         -1.5330   -2.8080    0.8860 n         1 MOL     -0.415289
     77 C25        -2.0720   -4.0820    0.3610 c3        1 MOL     -0.044583
     78 C26        -2.6690   -4.1080   -1.1450 c         1 MOL      0.293445
     79 O14        -3.0800   -5.1140   -1.7590 o         1 MOL     -0.511750
     80 C27        -3.0550   -4.7160    1.3720 c3        1 MOL      0.218369
     81 C28        -2.6900   -5.1540    2.7790 c3        1 MOL     -0.387453
     82 C29        -2.0270   -4.1640    3.7660 c         1 MOL      0.660628
     83 N8         -2.8050   -3.2450    4.2830 n         1 MOL     -0.786981
     84 O15        -0.8840   -4.3320    4.1950 o         1 MOL     -0.526603
     85 H33        -2.0350   -2.2550    1.5650 hn        1 MOL      0.236373
     86 H34        -1.2170   -4.7490    0.2880 h1        1 MOL      0.154793
     87 H35        -3.5250   -5.5730    0.8890 hc        1 MOL     -0.025930
     88 H36        -3.8340   -3.9660    1.4700 hc        1 MOL     -0.025930
     89 H37        -1.9990   -6.0010    2.7000 hc        1 MOL      0.110434
     90 H38        -3.5780   -5.4940    3.3040 hc        1 MOL      0.110434
     91 H39        -3.7610   -3.2510    3.9580 hn        1 MOL      0.379579
     92 H40        -2.4390   -2.6650    5.0230 hn        1 MOL      0.379579
     93 N9         -2.7260   -2.9480   -1.7970 n         1 MOL      0.130322
     94 C30        -3.2360   -2.7310   -3.1840 c3        1 MOL     -0.291343
     95 C31        -4.5680   -1.9610   -3.2600 c         1 MOL      0.495245
     96 O16        -4.8920   -1.3610   -4.2550 o         1 MOL     -0.564777
     97 C32        -2.1070   -2.0720   -4.1060 c3        1 MOL      0.258686
     98 C33        -0.9480   -3.0440   -4.2680 c3        1 MOL     -0.313422
     99 C34        -1.3600   -0.8940   -3.5210 c3        1 MOL     -0.313422
    100 H41        -2.4290   -2.1860   -1.2030 hn        1 MOL      0.037245
    101 H42        -3.5540   -3.6840   -3.6230 h1        1 MOL      0.158773
    102 H43        -2.4680   -1.6860   -5.0530 hc        1 MOL      0.011944
    103 H44        -0.4850   -3.1890   -3.2940 hc        1 MOL      0.071923
    104 H45        -1.3500   -4.0000   -4.6030 hc        1 MOL      0.071923
    105 H46        -0.2100   -2.7450   -5.0190 hc        1 MOL      0.071923
    106 H47        -2.1080   -0.1040   -3.3920 hc        1 MOL      0.071923
    107 H48        -0.9330   -1.0790   -2.5370 hc        1 MOL      0.071923
    108 H49        -0.5230   -0.6520   -4.1770 hc        1 MOL      0.071923
    109 N10        -5.3240   -1.8940   -2.2350 n         1 MOL     -0.248476
    110 C35        -6.6550   -1.2100   -2.2280 c3        1 MOL      0.072367
    111 C36        -6.8570    0.1710   -1.5760 c         1 MOL      0.651022
    112 O17        -7.7630    0.8740   -1.9090 o         1 MOL     -0.582945
    113 C37        -7.6860   -2.2290   -1.8020 c3        1 MOL     -0.139545
    114 C38        -7.6080   -3.5130   -2.5320 c         1 MOL      0.640599
    115 N11        -7.9170   -3.4950   -3.8060 n         1 MOL     -0.800980
    116 O18        -7.1690   -4.4560   -1.9810 o         1 MOL     -0.565044
    117 H50        -5.0020   -2.4990   -1.5060 hn        1 MOL      0.186627
    118 H51        -6.9110   -1.0810   -3.2770 h1        1 MOL      0.047112
    119 H52        -8.6660   -1.8440   -2.0630 hc        1 MOL      0.053015
    120 H53        -7.5230   -2.4620   -0.7450 hc        1 MOL      0.053015
    121 H54        -8.0870   -2.6750   -4.3600 hn        1 MOL      0.366002
    122 H55        -7.7620   -4.3710   -4.2770 hn        1 MOL      0.366002
    123 N12        -5.9560    0.6120   -0.7050 n         1 MOL     -0.645984
    124 C39        -6.1720    1.8580    0.1430 c3        1 MOL      0.473804
    125 C40        -4.8570    2.6170    0.4110 c         1 MOL      0.403198
    126 O19        -3.7620    2.0720    0.1450 o         1 MOL     -0.485901
    127 C41        -6.7930    1.3760    1.4800 c3        1 MOL     -0.048248
    128 C42        -8.0690    0.6110    1.3630 ca        1 MOL     -0.102182
    129 C43        -9.3070    1.2130    1.1490 ca        1 MOL     -0.042805
    130 C44        -8.0140   -0.7840    1.4810 ca        1 MOL     -0.042805
    131 C45       -10.4960    0.4850    1.0800 ca        1 MOL     -0.339522
    132 C46        -9.2490   -1.5370    1.2770 ca        1 MOL     -0.339522
    133 C47       -10.4510   -0.9180    1.2190 ca        1 MOL      0.418941
    134 O20       -11.5940   -1.6010    1.4300 oh        1 MOL     -0.518865
    135 H56        -5.2300   -0.0440   -0.4450 hn        1 MOL      0.235173
    136 H57        -6.7620    2.6130   -0.3880 h1        1 MOL     -0.024257
    137 H58        -7.0410    2.3460    1.9130 hc        1 MOL      0.038981
    138 H59        -6.0490    0.9090    2.1280 hc        1 MOL      0.038981
    139 H60        -9.3480    2.2980    1.1050 ha        1 MOL      0.104618
    140 H61        -7.0950   -1.3090    1.6710 ha        1 MOL      0.104618
    141 H62       -11.4720    0.9380    0.9970 ha        1 MOL      0.145287
    142 H63        -9.2250   -2.6070    1.4520 ha        1 MOL      0.145287
    143 H64       -12.3200   -0.9660    1.4620 ho        1 MOL      0.368098
    144 N13        -4.9950    3.8130    0.9530 n         1 MOL     -0.576350
    145 C48        -3.9060    4.6540    1.4680 c3        1 MOL      0.135572
    146 C49        -2.6920    4.9620    0.5320 c         1 MOL      0.318657
    147 O21        -1.8990    5.8560    0.8970 o         1 MOL     -0.488688
    148 C50        -3.4500    4.0580    2.8610 c3        1 MOL      0.148470
    149 C51        -4.6120    4.1520    3.7850 c3        1 MOL     -0.273615
    150 C52        -4.1470    3.8250    5.2590 c         1 MOL      0.687417
    151 O22        -4.1820    4.8220    6.0130 o         1 MOL     -0.717692
    152 O23        -3.8610    2.6570    5.6690 o         1 MOL     -0.717692
    153 H65        -5.9270    4.1060    1.2380 hn        1 MOL      0.317183
    154 H66        -4.2950    5.6560    1.6410 h1        1 MOL      0.065452
    155 H67        -2.6260    4.6360    3.2850 hc        1 MOL      0.032330
    156 H68        -3.1060    3.0240    2.7890 hc        1 MOL      0.032330
    157 H69        -5.3200    3.3740    3.4930 hc        1 MOL      0.006697
    158 H70        -5.0910    5.1230    3.6840 hc        1 MOL      0.006697
    159 N14        -2.5520    4.3840   -0.7030 n         1 MOL     -0.395787
    160 C53        -1.3780    4.6390   -1.5630 c3        1 MOL      0.088332
    161 C54        -1.8130    5.4600   -2.7990 c         1 MOL      0.473294
    162 O24        -0.9550    5.8880   -3.5240 o         1 MOL     -0.520767
    163 C55        -0.7410    3.3420   -1.9500 c3        1 MOL     -0.043729
    164 C56        -0.0270    2.5710   -0.9010 c3        1 MOL      0.520313
    165 C57         1.3690    3.0240   -0.4870 c         1 MOL      0.433417
    166 O25         2.2570    2.1060   -0.4510 o         1 MOL     -0.606388
    167 O26         1.4820    4.2230   -0.1510 o         1 MOL     -0.606388
    168 H71        -3.2130    3.6990   -1.0340 hn        1 MOL      0.271077
    169 H72        -0.5570    5.2520   -1.1690 h1        1 MOL      0.111705
    170 H73        -0.0510    3.5180   -2.7720 hc        1 MOL     -0.041549
    171 H74        -1.6070    2.7360   -2.2310 hc        1 MOL     -0.041549
    172 H75         0.1410    1.5710   -1.3080 hc        1 MOL     -0.141539
    173 H76        -0.7080    2.5960   -0.0580 hc        1 MOL     -0.141539
    174 N15        -3.0890    5.8610   -2.9250 n         1 MOL     -0.327119
    175 C58        -3.6490    6.5270   -4.2150 c3        1 MOL     -0.208778
    176 H77        -4.7270    6.3780   -4.2620 h1        1 MOL      0.097122
    177 H78        -3.4310    7.5940   -4.1970 h1        1 MOL      0.097122
    178 H79        -3.1810    6.0740   -5.0900 h1        1 MOL      0.097122
    179 H80        -3.8690    5.5490   -2.3750 hn        1 MOL      0.234699
    180 Ca1         4.5920    2.2270    0.5830 Ca        1 MOL      1.762755
    181 O27         3.9310    3.1290    2.9250 oh        1 MOL     -0.908768
    182 H81         4.0340    3.8070    3.5890 ho        1 MOL      0.420821
    183 H82         3.3370    2.4900    3.3260 ho        1 MOL      0.420821
    184 O28         5.7590    0.8140    2.5560 oh        1 MOL     -0.908768
    185 H83         6.3970    0.1180    2.4170 ho        1 MOL      0.420821
    186 H84         5.2810    0.5570    3.3500 ho        1 MOL      0.420821
    187 O29         4.2600    4.8830    0.1000 oh        1 MOL     -0.908768
    188 H85         3.4530    5.2420   -0.2760 ho        1 MOL      0.420821
    189 H86         4.7010    5.6320    0.4930 ho        1 MOL      0.420821
@<TRIPOS>BOND
     1    1    2 1   
     2    1    4 1   
     3    1    5 1   
     4    1    6 1   
     5    2    3 2   
     6    2    7 1   
     7    7    8 1   
     8    7   15 1   
     9    8    9 1   
    10    8   11 1   
    11    8   16 1   
    12    9   10 2   
    13    9   19 1   
    14   11   12 1   
    15   11   17 1   
    16   11   18 1   
    17   12   13 1   
    18   12   14 1   
    19   19   20 1   
    20   19   27 1   
    21   20   21 1   
    22   20   23 1   
    23   20   28 1   
    24   21   22 2   
    25   21   38 1   
    26   23   24 1   
    27   23   25 1   
    28   23   29 1   
    29   24   26 1   
    30   24   30 1   
    31   24   31 1   
    32   25   32 1   
    33   25   33 1   
    34   25   34 1   
    35   26   35 1   
    36   26   36 1   
    37   26   37 1   
    38   38   39 1   
    39   38   46 1   
    40   39   40 1   
    41   39   42 1   
    42   39   47 1   
    43   40   41 2   
    44   40   50 1   
    45   42   43 1   
    46   42   48 1   
    47   42   49 1   
    48   43   44 1   
    49   43   45 1   
    50   50   51 1   
    51   50   54 1   
    52   51   52 1   
    53   51   55 1   
    54   51   56 1   
    55   52   53 2   
    56   52   57 1   
    57   57   58 1   
    58   57   65 1   
    59   58   59 1   
    60   58   61 1   
    61   58   66 1   
    62   59   60 2   
    63   59   69 1   
    64   61   62 1   
    65   61   67 1   
    66   61   68 1   
    67   62   63 1   
    68   62   64 1   
    69   69   70 1   
    70   69   73 1   
    71   70   71 1   
    72   70   74 1   
    73   70   75 1   
    74   71   72 2   
    75   71   76 1   
    76   76   77 1   
    77   76   85 1   
    78   77   78 1   
    79   77   80 1   
    80   77   86 1   
    81   78   79 2   
    82   78   93 1   
    83   80   81 1   
    84   80   87 1   
    85   80   88 1   
    86   81   82 1   
    87   81   89 1   
    88   81   90 1   
    89   82   83 1   
    90   82   84 2   
    91   83   91 1   
    92   83   92 1   
    93   93   94 1   
    94   93  100 1   
    95   94   95 1   
    96   94   97 1   
    97   94  101 1   
    98   95   96 2   
    99   95  109 1   
   100   97   98 1   
   101   97   99 1   
   102   97  102 1   
   103   98  103 1   
   104   98  104 1   
   105   98  105 1   
   106   99  106 1   
   107   99  107 1   
   108   99  108 1   
   109  109  110 1   
   110  109  117 1   
   111  110  111 1   
   112  110  113 1   
   113  110  118 1   
   114  111  112 2   
   115  111  123 1   
   116  113  114 1   
   117  113  119 1   
   118  113  120 1   
   119  114  115 1   
   120  114  116 2   
   121  115  121 1   
   122  115  122 1   
   123  123  124 1   
   124  123  135 1   
   125  124  125 1   
   126  124  127 1   
   127  124  136 1   
   128  125  126 2   
   129  125  144 1   
   130  127  128 1   
   131  127  137 1   
   132  127  138 1   
   133  128  129 ar  
   134  128  130 ar  
   135  129  131 ar  
   136  129  139 1   
   137  130  132 ar  
   138  130  140 1   
   139  131  133 ar  
   140  131  141 1   
   141  132  133 ar  
   142  132  142 1   
   143  133  134 1   
   144  134  143 1   
   145  144  145 1   
   146  144  153 1   
   147  145  146 1   
   148  145  148 1   
   149  145  154 1   
   150  146  147 2   
   151  146  159 1   
   152  148  149 1   
   153  148  155 1   
   154  148  156 1   
   155  149  150 1   
   156  149  157 1   
   157  149  158 1   
   158  150  151 1   
   159  150  152 1   
   160  159  160 1   
   161  159  168 1   
   162  160  161 1   
   163  160  163 1   
   164  160  169 1   
   165  161  162 2   
   166  161  174 1   
   167  163  164 1   
   168  163  170 1   
   169  163  171 1   
   170  164  165 1   
   171  164  172 1   
   172  164  173 1   
   173  165  166 1   
   174  165  167 1   
   175  174  175 1   
   176  174  179 1   
   177  175  176 1   
   178  175  177 1   
   179  175  178 1   
   180  181  182 1   
   181  181  183 1   
   182  184  185 1   
   183  184  186 1   
   184  187  188 1   
   185  187  189 1   
@<TRIPOS>SUBSTRUCTURE
     1 MOL         1 TEMP              0 ****  ****    0 ROOT
