@<TRIPOS>MOLECULE
MOL
  195   189     1     0     0
SMALL
resp


@<TRIPOS>ATOM
      1 C1          4.0840   -2.1040   -2.8430 c3        1 MOL     -0.458161
      2 C2          3.1640   -2.5430   -1.6680 c         1 MOL      0.556772
      3 O1          2.1630   -1.8650   -1.3930 o         1 MOL     -0.480201
      4 H1          3.9660   -1.0350   -3.0160 hc        1 MOL      0.122522
      5 H2          5.1220   -2.3190   -2.5910 hc        1 MOL      0.122522
      6 H3          3.8070   -2.6500   -3.7450 hc        1 MOL      0.122522
      7 N1          3.4700   -3.6530   -0.9770 n         1 MOL     -0.340251
      8 C3          2.7420   -4.4000    0.0700 c3        1 MOL     -0.014563
      9 C4          1.2480   -4.5020   -0.1620 c         1 MOL      0.790751
     10 O2          0.5030   -4.3590    0.7500 o         1 MOL     -0.563871
     11 C5          3.1680   -4.0020    1.4600 c3        1 MOL     -0.288571
     12 C6          4.6780   -4.2190    1.6700 c         1 MOL      0.793086
     13 O3          5.4050   -3.4410    2.2440 o         1 MOL     -0.746920
     14 O4          5.1890   -5.2350    1.1560 o         1 MOL     -0.746920
     15 H4          4.3380   -4.0970   -1.2680 hn        1 MOL      0.186308
     16 H5          3.1170   -5.3990   -0.1530 h1        1 MOL      0.080188
     17 H6          2.5630   -4.5520    2.1840 hc        1 MOL      0.085915
     18 H7          2.9810   -2.9400    1.6240 hc        1 MOL      0.085915
     19 N2          0.8520   -4.7170   -1.3880 n         1 MOL     -0.700937
     20 C7         -0.5860   -4.8180   -1.6670 c3        1 MOL     -0.134179
     21 C8         -1.0470   -6.2420   -1.2970 c         1 MOL      0.644050
     22 O5         -0.2300   -7.2150   -1.3710 o         1 MOL     -0.597160
     23 C9         -0.8560   -4.3410   -3.2260 c3        1 MOL      0.010201
     24 C10         0.0030   -5.1590   -4.2660 c3        1 MOL      0.189442
     25 C11        -0.6920   -2.8720   -3.2880 c3        1 MOL     -0.526080
     26 C12        -0.3740   -5.1060   -5.7660 c3        1 MOL     -0.340550
     27 H8          1.4850   -4.8150   -2.1640 hn        1 MOL      0.313961
     28 H9         -1.0940   -4.0770   -1.0380 h1        1 MOL      0.193070
     29 H10        -1.8980   -4.5620   -3.4160 hc        1 MOL      0.093413
     30 H11         0.0250   -6.2170   -3.9990 hc        1 MOL      0.003675
     31 H12         1.0520   -4.8740   -4.1810 hc        1 MOL      0.003675
     32 H13        -1.4610   -2.3890   -2.6750 hc        1 MOL      0.162339
     33 H14         0.2930   -2.5990   -2.8940 hc        1 MOL      0.162339
     34 H15        -0.8420   -2.4440   -4.2810 hc        1 MOL      0.162339
     35 H16        -0.2150   -4.0910   -6.1340 hc        1 MOL      0.071574
     36 H17         0.2240   -5.8900   -6.2270 hc        1 MOL      0.071574
     37 H18        -1.4210   -5.4120   -5.8280 hc        1 MOL      0.071574
     38 N3         -2.3310   -6.5660   -1.0490 n         1 MOL     -0.603422
     39 C13        -3.4930   -5.6950   -0.9870 c3        1 MOL     -0.023975
     40 C14        -4.3450   -6.0780    0.2720 c         1 MOL      0.641082
     41 O6         -4.6810   -7.2390    0.4460 o         1 MOL     -0.583988
     42 C15        -4.4220   -5.8930   -2.2720 c3        1 MOL     -0.058071
     43 C16        -5.6670   -4.9700   -2.2060 c         1 MOL      0.680607
     44 O7         -6.7110   -5.3620   -2.7840 o         1 MOL     -0.704821
     45 O8         -5.7340   -4.0480   -1.4080 o         1 MOL     -0.704821
     46 H19        -2.5230   -7.5210   -0.7720 hn        1 MOL      0.332325
     47 H20        -3.1160   -4.6760   -0.9150 h1        1 MOL      0.032715
     48 H21        -4.7620   -6.9260   -2.2930 hc        1 MOL      0.011366
     49 H22        -3.9650   -5.6480   -3.2300 hc        1 MOL      0.011366
     50 N4         -4.6430   -5.1120    1.1370 n         1 MOL     -0.339519
     51 C17        -5.4090   -5.2760    2.4090 c3        1 MOL      0.112695
     52 C18        -6.3220   -4.0400    2.6820 c         1 MOL      0.455145
     53 O9         -7.5220   -4.1720    2.6740 o         1 MOL     -0.555463
     54 H23        -4.2780   -4.1930    0.9150 hn        1 MOL      0.223947
     55 H24        -4.7000   -5.4270    3.2230 h1        1 MOL      0.015795
     56 H25        -5.9840   -6.2010    2.4060 h1        1 MOL      0.015795
     57 N5         -5.8060   -2.8680    2.8510 n         1 MOL     -0.320942
     58 C19        -6.5160   -1.6200    3.3010 c3        1 MOL     -0.026581
     59 C20        -7.4380   -1.0640    2.2440 c         1 MOL      0.507520
     60 O10        -8.4910   -0.5080    2.5490 o         1 MOL     -0.575779
     61 C21        -5.4480   -0.5760    3.7240 c3        1 MOL     -0.182836
     62 C22        -4.3780   -0.4150    2.6440 c         1 MOL      0.664065
     63 O11        -3.4350   -1.2160    2.6180 o         1 MOL     -0.674722
     64 O12        -4.4990    0.5270    1.8200 o         1 MOL     -0.674722
     65 H26        -4.8000   -2.8650    2.9410 hn        1 MOL      0.214077
     66 H27        -7.0450   -1.6940    4.2470 h1        1 MOL      0.068115
     67 H28        -4.9290   -0.9700    4.5960 hc        1 MOL      0.038616
     68 H29        -5.9500    0.3360    4.0740 hc        1 MOL      0.038616
     69 N6         -7.0000   -1.0890    0.9580 n         1 MOL     -0.083946
     70 C23        -7.6340   -0.4290   -0.1320 c3        1 MOL     -0.282480
     71 C24        -7.7190    1.1560   -0.1270 c         1 MOL      0.555304
     72 O13        -8.5260    1.7350   -0.8500 o         1 MOL     -0.598505
     73 H30        -6.1000   -1.4950    0.7670 hn        1 MOL      0.228432
     74 H31        -8.6650   -0.7790   -0.1700 h1        1 MOL      0.120429
     75 H32        -7.1370   -0.6790   -1.0720 h1        1 MOL      0.120429
     76 N7         -7.0450    1.8510    0.7980 n         1 MOL     -0.059295
     77 C25        -6.9660    3.3180    0.9620 c3        1 MOL     -0.096135
     78 C26        -6.5470    4.1030   -0.3140 c         1 MOL      0.476073
     79 O14        -7.0200    5.2210   -0.4600 o         1 MOL     -0.509628
     80 C27        -8.2950    3.8580    1.6390 c3        1 MOL      0.119692
     81 C28        -8.4210    3.4820    3.0780 c3        1 MOL     -0.175630
     82 C29        -7.3730    4.1170    4.0280 c         1 MOL      0.578096
     83 N8         -7.0240    3.5390    5.1450 n         1 MOL     -0.683764
     84 O15        -6.7880    5.1160    3.6760 o         1 MOL     -0.530712
     85 H33        -6.4980    1.3160    1.4560 hn        1 MOL      0.102698
     86 H34        -6.1630    3.4980    1.6730 h1        1 MOL      0.125166
     87 H35        -9.1280    3.5970    0.9930 hc        1 MOL      0.000032
     88 H36        -8.2190    4.9510    1.6100 hc        1 MOL      0.000032
     89 H37        -8.4240    2.3950    3.1580 hc        1 MOL      0.029745
     90 H38        -9.3660    3.8490    3.4840 hc        1 MOL      0.029745
     91 H39        -7.6680    2.9200    5.6200 hn        1 MOL      0.317008
     92 H40        -6.3410    3.9860    5.7330 hn        1 MOL      0.317008
     93 N9         -5.7460    3.5530   -1.2240 n         1 MOL     -0.230284
     94 C30        -5.3860    4.0810   -2.5530 c3        1 MOL     -0.307087
     95 C31        -3.9240    3.6930   -2.9150 c         1 MOL      0.789301
     96 O16        -3.3410    4.4100   -3.7010 o         1 MOL     -0.624850
     97 C32        -6.2650    3.4920   -3.6690 c3        1 MOL      0.337763
     98 C33        -6.1690    1.9250   -3.7820 c3        1 MOL     -0.521585
     99 C34        -7.8540    3.7780   -3.5620 c3        1 MOL     -0.521585
    100 H41        -5.4270    2.6360   -0.9450 hn        1 MOL      0.095799
    101 H42        -5.6420    5.1390   -2.6280 h1        1 MOL      0.146598
    102 H43        -5.9580    3.8380   -4.6540 hc        1 MOL     -0.020768
    103 H44        -6.5470    1.4480   -2.8820 hc        1 MOL      0.136352
    104 H45        -6.6090    1.6770   -4.7470 hc        1 MOL      0.136352
    105 H46        -5.1260    1.6080   -3.8810 hc        1 MOL      0.136352
    106 H47        -7.9370    4.8460   -3.4190 hc        1 MOL      0.136352
    107 H48        -8.3860    3.3560   -4.4180 hc        1 MOL      0.136352
    108 H49        -8.2240    3.4100   -2.6040 hc        1 MOL      0.136352
    109 N10        -3.2700    2.7280   -2.3370 n         1 MOL     -0.596306
    110 C35        -1.8150    2.3640   -2.4860 c3        1 MOL      0.103009
    111 C36        -0.9760    2.7250   -1.1920 c         1 MOL      0.598531
    112 O17        -1.4680    2.5970   -0.0540 o         1 MOL     -0.565920
    113 C37        -1.8130    0.8430   -2.7910 c3        1 MOL      0.016068
    114 C38        -0.4580    0.3210   -2.7190 c         1 MOL      0.317097
    115 N11        -0.0790   -0.2380   -1.6420 n         1 MOL     -0.296509
    116 O18         0.3780    0.4660   -3.6090 o         1 MOL     -0.568681
    117 H50        -3.8210    2.0420   -1.8390 hn        1 MOL      0.370170
    118 H51        -1.3370    2.8790   -3.3230 h1        1 MOL      0.080057
    119 H52        -2.3020    0.7620   -3.7600 hc        1 MOL      0.001787
    120 H53        -2.5370    0.3390   -2.1470 hc        1 MOL      0.001787
    121 H54        -0.6580   -0.3240   -0.8220 hn        1 MOL      0.236663
    122 H55         0.8610   -0.6000   -1.5250 hn        1 MOL      0.236663
    123 N12         0.3350    2.9170   -1.3190 n         1 MOL     -0.576807
    124 C39         1.2020    3.2960   -0.2020 c3        1 MOL      0.278762
    125 C40         2.5070    3.9120   -0.6750 c         1 MOL      0.435391
    126 O19         3.1050    3.5190   -1.6490 o         1 MOL     -0.530433
    127 C41         1.4980    2.0470    0.6480 c3        1 MOL     -0.248120
    128 C42         2.0810    2.3290    1.9820 ca        1 MOL      0.012623
    129 C43         3.4100    1.9800    2.1870 ca        1 MOL     -0.081382
    130 C44         1.2620    2.8240    2.9790 ca        1 MOL     -0.081382
    131 C45         3.9490    1.9980    3.4740 ca        1 MOL     -0.303410
    132 C46         1.7920    2.9210    4.2310 ca        1 MOL     -0.303410
    133 C47         3.1440    2.5170    4.5470 ca        1 MOL      0.352780
    134 O20         3.5160    2.5000    5.8360 oh        1 MOL     -0.508105
    135 H56         0.7180    2.7610   -2.2410 hn        1 MOL      0.302747
    136 H57         0.6880    4.1020    0.3240 h1        1 MOL      0.031781
    137 H58         2.0310    1.2720    0.0940 hc        1 MOL      0.113352
    138 H59         0.5600    1.5440    0.8680 hc        1 MOL      0.113352
    139 H60         4.0160    1.6200    1.3780 ha        1 MOL      0.150983
    140 H61         0.2420    3.1250    2.7880 ha        1 MOL      0.150983
    141 H62         4.9030    1.5520    3.7030 ha        1 MOL      0.146866
    142 H63         1.1290    3.2550    5.0080 ha        1 MOL      0.146866
    143 H64         4.4100    2.1760    6.0060 ho        1 MOL      0.364651
    144 N13         2.9870    4.8620    0.0850 n         1 MOL     -0.428525
    145 C48         4.4240    5.3100    0.0280 c3        1 MOL      0.228847
    146 C49         5.3030    4.6780    1.1160 c         1 MOL      0.421476
    147 O21         5.3160    5.1420    2.2470 o         1 MOL     -0.550023
    148 C50         4.5160    6.7810    0.0980 c3        1 MOL      0.042455
    149 C51         3.9060    7.3910   -1.1770 c3        1 MOL     -0.242847
    150 C52         3.9330    8.9150   -1.1730 c         1 MOL      0.715831
    151 O22         4.4070    9.4960   -2.1790 o         1 MOL     -0.717777
    152 O23         3.5340    9.5210   -0.1490 o         1 MOL     -0.717777
    153 H65         2.5290    5.0690    0.9680 hn        1 MOL      0.270204
    154 H66         4.8830    5.0770   -0.9330 h1        1 MOL      0.023622
    155 H67         5.5780    7.0360    0.1400 hc        1 MOL      0.014786
    156 H68         4.1050    7.1280    1.0500 hc        1 MOL      0.014786
    157 H69         2.8780    7.0490   -1.2890 hc        1 MOL      0.035891
    158 H70         4.5480    7.0650   -2.0000 hc        1 MOL      0.035891
    159 N14         6.1260    3.6890    0.8220 n         1 MOL     -0.478972
    160 C53         6.2040    2.8460   -0.3670 c3        1 MOL      0.017008
    161 C54         6.7660    3.6770   -1.5770 c         1 MOL      0.631169
    162 O24         7.7890    4.3410   -1.4700 o         1 MOL     -0.562243
    163 C55         6.9890    1.5470   -0.0560 c3        1 MOL     -0.250414
    164 C56         6.7630    0.4690   -1.1390 c3        1 MOL     -0.075953
    165 C57         7.1740   -0.9170   -0.5920 c         1 MOL      0.568894
    166 O25         6.2720   -1.7680   -0.4630 o         1 MOL     -0.668787
    167 O26         8.3320   -1.2170   -0.3490 o         1 MOL     -0.668787
    168 H71         6.6590    3.4510    1.6440 hn        1 MOL      0.277170
    169 H72         5.2070    2.5500   -0.6990 h1        1 MOL      0.090971
    170 H73         6.4970    1.1880    0.8560 hc        1 MOL      0.100143
    171 H74         8.0650    1.6480   -0.0080 hc        1 MOL      0.100143
    172 H75         7.4340    0.6770   -1.9660 hc        1 MOL      0.027603
    173 H76         5.7130    0.5150   -1.4240 hc        1 MOL      0.027603
    174 N15         6.1800    3.3880   -2.7530 n         1 MOL     -0.321476
    175 C58         6.4100    4.0870   -4.0180 c3        1 MOL     -0.236776
    176 H77         6.3580    5.1620   -3.8530 h1        1 MOL      0.106652
    177 H78         7.3960    3.8270   -4.4040 h1        1 MOL      0.106652
    178 H79         5.6470    3.7930   -4.7400 h1        1 MOL      0.106652
    179 H80         5.4310    2.7060   -2.7190 hn        1 MOL      0.264898
    180 Ca1         7.6250   -3.4520    0.9760 Ca        1 MOL      1.704173
    181 O27         8.0640   -3.8890    4.0080 oh        1 MOL     -0.787299
    182 H81         8.3480   -4.7490    4.3170 ho        1 MOL      0.376407
    183 H82         8.3410   -3.2710    4.6920 ho        1 MOL      0.376407
    184 O28         7.5870   -1.4040    2.8690 oh        1 MOL     -0.787299
    185 H83         8.1520   -1.2290    3.6170 ho        1 MOL      0.376407
    186 H84         6.7240   -1.1050    3.1490 ho        1 MOL      0.376407
    187 O29         9.6820   -3.8130   -0.8200 oh        1 MOL     -0.787299
    188 H85        10.4140   -3.1940   -0.8960 ho        1 MOL      0.376407
    189 H86         9.7750   -4.3920   -1.5780 ho        1 MOL      0.376407
    190 O30        10.1310   -2.9860    2.1580 oh        1 MOL     -0.787299
    191 H87        10.2690   -3.1600    3.0850 ho        1 MOL      0.376407
    192 H88        10.6610   -2.2060    1.9800 ho        1 MOL      0.376407
    193 O31         8.1680   -6.0410    1.7670 oh        1 MOL     -0.787299
    194 H89         7.6070   -6.2980    2.4950 ho        1 MOL      0.376407
    195 H90         8.8640   -6.6980    1.7640 ho        1 MOL      0.376407
@<TRIPOS>BOND
     1    1    2 1   
     2    1    4 1   
     3    1    5 1   
     4    1    6 1   
     5    2    3 2   
     6    2    7 1   
     7    7    8 1   
     8    7   15 1   
     9    8    9 1   
    10    8   11 1   
    11    8   16 1   
    12    9   10 2   
    13    9   19 1   
    14   11   12 1   
    15   11   17 1   
    16   11   18 1   
    17   12   13 1   
    18   12   14 1   
    19   19   20 1   
    20   19   27 1   
    21   20   21 1   
    22   20   23 1   
    23   20   28 1   
    24   21   22 2   
    25   21   38 1   
    26   23   24 1   
    27   23   25 1   
    28   23   29 1   
    29   24   26 1   
    30   24   30 1   
    31   24   31 1   
    32   25   32 1   
    33   25   33 1   
    34   25   34 1   
    35   26   35 1   
    36   26   36 1   
    37   26   37 1   
    38   38   39 1   
    39   38   46 1   
    40   39   40 1   
    41   39   42 1   
    42   39   47 1   
    43   40   41 2   
    44   40   50 1   
    45   42   43 1   
    46   42   48 1   
    47   42   49 1   
    48   43   44 1   
    49   43   45 1   
    50   50   51 1   
    51   50   54 1   
    52   51   52 1   
    53   51   55 1   
    54   51   56 1   
    55   52   53 2   
    56   52   57 1   
    57   57   58 1   
    58   57   65 1   
    59   58   59 1   
    60   58   61 1   
    61   58   66 1   
    62   59   60 2   
    63   59   69 1   
    64   61   62 1   
    65   61   67 1   
    66   61   68 1   
    67   62   63 1   
    68   62   64 1   
    69   69   70 1   
    70   69   73 1   
    71   70   71 1   
    72   70   74 1   
    73   70   75 1   
    74   71   72 2   
    75   71   76 1   
    76   76   77 1   
    77   76   85 1   
    78   77   78 1   
    79   77   80 1   
    80   77   86 1   
    81   78   79 2   
    82   78   93 1   
    83   80   81 1   
    84   80   87 1   
    85   80   88 1   
    86   81   82 1   
    87   81   89 1   
    88   81   90 1   
    89   82   83 1   
    90   82   84 2   
    91   83   91 1   
    92   83   92 1   
    93   93   94 1   
    94   93  100 1   
    95   94   95 1   
    96   94   97 1   
    97   94  101 1   
    98   95   96 2   
    99   95  109 1   
   100   97   98 1   
   101   97   99 1   
   102   97  102 1   
   103   98  103 1   
   104   98  104 1   
   105   98  105 1   
   106   99  106 1   
   107   99  107 1   
   108   99  108 1   
   109  109  110 1   
   110  109  117 1   
   111  110  111 1   
   112  110  113 1   
   113  110  118 1   
   114  111  112 2   
   115  111  123 1   
   116  113  114 1   
   117  113  119 1   
   118  113  120 1   
   119  114  115 1   
   120  114  116 2   
   121  115  121 1   
   122  115  122 1   
   123  123  124 1   
   124  123  135 1   
   125  124  125 1   
   126  124  127 1   
   127  124  136 1   
   128  125  126 2   
   129  125  144 1   
   130  127  128 1   
   131  127  137 1   
   132  127  138 1   
   133  128  129 ar  
   134  128  130 ar  
   135  129  131 ar  
   136  129  139 1   
   137  130  132 ar  
   138  130  140 1   
   139  131  133 ar  
   140  131  141 1   
   141  132  133 ar  
   142  132  142 1   
   143  133  134 1   
   144  134  143 1   
   145  144  145 1   
   146  144  153 1   
   147  145  146 1   
   148  145  148 1   
   149  145  154 1   
   150  146  147 2   
   151  146  159 1   
   152  148  149 1   
   153  148  155 1   
   154  148  156 1   
   155  149  150 1   
   156  149  157 1   
   157  149  158 1   
   158  150  151 1   
   159  150  152 1   
   160  159  160 1   
   161  159  168 1   
   162  160  161 1   
   163  160  163 1   
   164  160  169 1   
   165  161  162 2   
   166  161  174 1   
   167  163  164 1   
   168  163  170 1   
   169  163  171 1   
   170  164  165 1   
   171  164  172 1   
   172  164  173 1   
   173  165  166 1   
   174  165  167 1   
   175  174  175 1   
   176  174  179 1   
   177  175  176 1   
   178  175  177 1   
   179  175  178 1   
   180  181  182 1   
   181  181  183 1   
   182  184  185 1   
   183  184  186 1   
   184  187  188 1   
   185  187  189 1   
   186  190  191 1   
   187  190  192 1   
   188  193  194 1   
   189  193  195 1   
@<TRIPOS>SUBSTRUCTURE
     1 MOL         1 TEMP              0 ****  ****    0 ROOT
