@<TRIPOS>MOLECULE
MOL
  192   187     1     0     0
SMALL
resp


@<TRIPOS>ATOM
      1 C1          5.5110    1.5240    6.0170 c3        1 MOL     -0.064697
      2 C2          5.0790    1.4190    4.5590 c         1 MOL      0.756780
      3 O1          4.7110    2.4090    3.9390 o         1 MOL     -0.624650
      4 H1          5.8120    2.5490    6.2340 hc        1 MOL      0.008902
      5 H2          4.6790    1.2460    6.6650 hc        1 MOL      0.008902
      6 H3          6.3520    0.8540    6.1970 hc        1 MOL      0.008902
      7 N1          5.0720    0.2380    4.0130 n         1 MOL     -0.669521
      8 C3          4.8030    0.0920    2.5430 c3        1 MOL      0.368398
      9 C4          3.3460   -0.0140    2.1220 c         1 MOL      0.131351
     10 O2          3.1200   -0.3110    0.9450 o         1 MOL     -0.272710
     11 C5          5.7440   -0.9810    2.0270 c3        1 MOL     -0.275112
     12 C6          5.7970   -2.2530    2.8720 c         1 MOL      0.692956
     13 O3          5.0470   -3.2360    2.5540 o         1 MOL     -0.702585
     14 O4          6.5590   -2.3650    3.8350 o         1 MOL     -0.702585
     15 H4          5.3600   -0.5180    4.6100 hn        1 MOL      0.338342
     16 H5          5.1470    0.9280    1.9340 h1        1 MOL      0.013885
     17 H6          6.7630   -0.6860    1.8090 hc        1 MOL      0.101511
     18 H7          5.3130   -1.2930    1.0730 hc        1 MOL      0.101511
     19 N2          2.3790    0.1670    3.0460 n         1 MOL     -0.373525
     20 C7          0.9450   -0.0170    2.8300 c3        1 MOL      0.025762
     21 C8         -0.0200    1.2620    2.9970 c         1 MOL      0.529666
     22 O5          0.1780    2.1040    3.9080 o         1 MOL     -0.541379
     23 C9          0.4610   -1.2150    3.5930 c3        1 MOL      0.037165
     24 C10         1.1360   -2.5090    3.2230 c3        1 MOL      0.093469
     25 C11         0.4520   -3.7570    3.9490 c3        1 MOL     -0.417654
     26 C12         1.4590   -4.8830    3.5810 c3        1 MOL      0.392697
     27 N3          1.0850   -6.1550    4.1980 n4        1 MOL     -0.495669
     28 H8          2.6410    0.1640    4.0210 hn        1 MOL      0.299855
     29 H9          0.8420   -0.3310    1.7910 h1        1 MOL      0.229394
     30 H10        -0.6170   -1.3250    3.4320 hc        1 MOL     -0.001205
     31 H11         0.6030   -1.0550    4.6630 hc        1 MOL     -0.001205
     32 H12         2.1630   -2.4450    3.5770 hc        1 MOL      0.011456
     33 H13         1.0390   -2.6250    2.1390 hc        1 MOL      0.011456
     34 H14        -0.4500   -3.9870    3.3990 hc        1 MOL      0.129774
     35 H15         0.2690   -3.5990    5.0180 hc        1 MOL      0.129774
     36 H16         2.4950   -4.6800    3.8510 hx        1 MOL     -0.001772
     37 H17         1.5360   -4.8760    2.4950 hx        1 MOL     -0.001772
     38 H18         1.8350   -6.8150    4.0680 hn        1 MOL      0.344446
     39 H19         1.0260   -5.9910    5.1860 hn        1 MOL      0.344446
     40 H20         0.2450   -6.5990    3.8330 hn        1 MOL      0.344446
     41 N4         -1.0690    1.4770    2.1800 n         1 MOL     -0.463553
     42 C13        -1.6510    0.7580    1.0890 c3        1 MOL      0.010705
     43 C14        -1.8930   -0.7220    1.4040 c         1 MOL      0.119612
     44 O6         -1.1390   -1.6120    0.9890 o         1 MOL     -0.425303
     45 C15        -0.7880    0.9890   -0.1860 c3        1 MOL      0.065564
     46 C16        -0.5320    2.4580   -0.5850 c         1 MOL      0.586466
     47 O7         -0.9790    3.3530    0.1180 o         1 MOL     -0.746223
     48 O8          0.1830    2.7650   -1.5990 o         1 MOL     -0.746223
     49 H21        -1.3540    2.4450    2.2050 hn        1 MOL      0.293040
     50 H22        -2.5630    1.2940    0.8320 h1        1 MOL      0.107883
     51 H23        -1.3210    0.6180   -1.0590 hc        1 MOL      0.023440
     52 H24         0.1720    0.4770   -0.1080 hc        1 MOL      0.023440
     53 N5         -2.9940   -1.0880    2.1080 n         1 MOL     -0.236375
     54 C17        -4.0980   -0.1960    2.5240 c3        1 MOL     -0.008522
     55 C18        -5.3630   -0.9520    3.0200 c         1 MOL      0.553328
     56 O9         -5.2780   -2.1050    3.4970 o         1 MOL     -0.564584
     57 H25        -3.1100   -2.0410    2.4120 hn        1 MOL      0.256972
     58 H26        -4.3110    0.5170    1.7280 h1        1 MOL      0.069420
     59 H27        -3.7800    0.3800    3.3880 h1        1 MOL      0.069420
     60 N6         -6.5740   -0.3910    2.9050 n         1 MOL     -0.351900
     61 C19        -6.8190    0.9820    2.5920 c3        1 MOL     -0.091311
     62 C20        -7.6900    1.0030    1.3760 c         1 MOL      0.528375
     63 O10        -8.2690    0.0810    0.8610 o         1 MOL     -0.477233
     64 C21        -7.6510    1.6590    3.7260 c3        1 MOL     -0.074353
     65 C22        -8.8380    0.8330    4.2380 c         1 MOL      0.654135
     66 O11        -8.5560   -0.1300    5.0540 o         1 MOL     -0.644846
     67 O12       -10.0130    1.1240    3.8750 o         1 MOL     -0.644846
     68 H28        -7.3920   -0.9700    2.8270 hn        1 MOL      0.306076
     69 H29        -5.9220    1.5900    2.4540 h1        1 MOL      0.075619
     70 H30        -7.9540    2.6630    3.4410 hc        1 MOL     -0.007237
     71 H31        -6.9650    1.7390    4.5620 hc        1 MOL     -0.007237
     72 N7         -7.6470    2.1060    0.6480 n         1 MOL     -0.283449
     73 C23        -8.3600    2.3510   -0.6010 c3        1 MOL     -0.318390
     74 C24        -7.5540    1.8630   -1.8160 c         1 MOL      0.622025
     75 O13        -8.0790    1.5050   -2.8550 o         1 MOL     -0.547631
     76 H32        -6.9590    2.7940    0.9090 hn        1 MOL      0.222981
     77 H33        -8.4010    3.4370   -0.6500 h1        1 MOL      0.160330
     78 H34        -9.3730    1.9680   -0.6170 h1        1 MOL      0.160330
     79 N8         -6.1990    1.8370   -1.6580 n         1 MOL     -0.485236
     80 C25        -5.3970    0.9420   -2.5420 c3        1 MOL      0.020156
     81 C26        -4.6980   -0.1690   -1.7390 c         1 MOL      0.516667
     82 O14        -4.1640    0.0980   -0.7230 o         1 MOL     -0.574572
     83 C27        -4.3700    1.7480   -3.3930 c3        1 MOL      0.492665
     84 C28        -4.9420    2.8470   -4.3330 c3        1 MOL     -0.382272
     85 O15        -3.7060    0.8710   -4.2150 oh        1 MOL     -0.665795
     86 H35        -5.7420    2.1950   -0.8390 hn        1 MOL      0.259783
     87 H36        -5.8970    0.4700   -3.3800 h1        1 MOL      0.103453
     88 H37        -3.6920    2.2590   -2.7050 h1        1 MOL     -0.094499
     89 H38        -2.7630    1.0810   -4.1840 ho        1 MOL      0.401529
     90 H39        -5.4080    3.6040   -3.7080 hc        1 MOL      0.089152
     91 H40        -4.2200    3.2400   -5.0600 hc        1 MOL      0.089152
     92 H41        -5.6580    2.2790   -4.9330 hc        1 MOL      0.089152
     93 N9         -4.6720   -1.4210   -2.2010 n         1 MOL     -0.189137
     94 C29        -4.3520   -2.5470   -1.2730 c3        1 MOL     -0.210983
     95 C30        -3.1290   -3.3100   -1.8420 c         1 MOL      0.637561
     96 O16        -3.2080   -4.5280   -2.0470 o         1 MOL     -0.521448
     97 C31        -5.6380   -3.3930   -1.1540 c3        1 MOL      0.085337
     98 C32        -6.2100   -4.0690   -2.4710 c3        1 MOL      0.120889
     99 C33        -6.7090   -2.7170   -0.3500 c3        1 MOL     -0.136827
    100 C34        -7.4160   -5.0230   -2.3430 c3        1 MOL     -0.297876
    101 H42        -5.1480   -1.5610   -3.0790 hn        1 MOL      0.180260
    102 H43        -4.1270   -2.1280   -0.2920 h1        1 MOL      0.157012
    103 H44        -5.3200   -4.1700   -0.4620 hc        1 MOL      0.014951
    104 H45        -5.3870   -4.6310   -2.9380 hc        1 MOL      0.001695
    105 H46        -6.5440   -3.3050   -3.1730 hc        1 MOL      0.001695
    106 H47        -7.1010   -1.8140   -0.8190 hc        1 MOL      0.038930
    107 H48        -7.5570   -3.3990   -0.1980 hc        1 MOL      0.038930
    108 H49        -6.3950   -2.4010    0.6500 hc        1 MOL      0.038930
    109 H50        -7.6310   -5.3340   -3.3640 hc        1 MOL      0.072787
    110 H51        -7.3060   -5.8610   -1.6520 hc        1 MOL      0.072787
    111 H52        -8.2810   -4.4050   -2.1060 hc        1 MOL      0.072787
    112 N10        -2.0010   -2.5720   -1.9700 n         1 MOL     -0.467921
    113 C35        -0.8240   -3.0230   -2.7100 c3        1 MOL      0.033022
    114 C36         0.4450   -2.4180   -2.1170 c         1 MOL      0.453600
    115 O17         0.7100   -1.2110   -2.2320 o         1 MOL     -0.459808
    116 C37        -0.8970   -2.7000   -4.2170 c3        1 MOL      0.140636
    117 C38        -1.7350   -1.4610   -4.6080 c3        1 MOL     -0.154696
    118 O18        -1.5730   -3.7240   -4.9590 oh        1 MOL     -0.574278
    119 H53        -2.0210   -1.5660   -1.8870 hn        1 MOL      0.228548
    120 H54        -0.6950   -4.1100   -2.6560 h1        1 MOL      0.088039
    121 H55         0.1630   -2.5570   -4.4400 h1        1 MOL      0.044741
    122 H56        -1.3840   -3.5330   -5.8840 ho        1 MOL      0.382222
    123 H57        -2.7550   -1.6940   -4.2770 hc        1 MOL      0.052556
    124 H58        -1.3360   -0.5320   -4.2070 hc        1 MOL      0.052556
    125 H59        -1.7660   -1.3290   -5.6820 hc        1 MOL      0.052556
    126 N11         1.3400   -3.2560   -1.5950 n         1 MOL     -0.400496
    127 C39         2.6060   -2.8260   -0.9720 c3        1 MOL      0.018313
    128 C40         3.3870   -2.0960   -1.9920 c         1 MOL      0.549536
    129 O19         3.3630   -2.3400   -3.1680 o         1 MOL     -0.559331
    130 C41         3.2840   -4.0850   -0.3700 c3        1 MOL      0.427250
    131 C42         3.8510   -5.1440   -1.3710 c3        1 MOL     -0.117018
    132 O20         2.3430   -4.8070    0.3960 oh        1 MOL     -0.657131
    133 H60         1.1630   -4.2420   -1.6950 hn        1 MOL      0.296024
    134 H61         2.3730   -2.1590   -0.1500 h1        1 MOL      0.085296
    135 H62         4.1290   -3.7330    0.2270 h1        1 MOL     -0.041909
    136 H63         2.8530   -5.3760    0.9830 ho        1 MOL      0.375616
    137 H64         4.8600   -4.7600   -1.5450 hc        1 MOL      0.007052
    138 H65         3.8100   -6.1410   -0.9320 hc        1 MOL      0.007052
    139 H66         3.2410   -5.0850   -2.2760 hc        1 MOL      0.007052
    140 N12         4.1660   -1.1570   -1.4680 n         1 MOL     -0.249972
    141 C43         5.1550   -0.3550   -2.2560 c3        1 MOL      0.066599
    142 C44         5.1920    1.1320   -1.9800 c         1 MOL      0.574766
    143 O21         5.4640    1.9190   -2.9010 o         1 MOL     -0.612163
    144 C45         6.6220   -0.9600   -2.1740 c3        1 MOL     -0.462505
    145 C46         6.7350   -2.4350   -2.3000 c3        1 MOL      0.375347
    146 C47         8.1780   -2.8850   -2.3410 c3        1 MOL     -0.034324
    147 C48         8.2190   -4.3910   -2.7210 c3        1 MOL      0.023308
    148 N13         9.6410   -4.9220   -2.7770 n4        1 MOL     -0.206990
    149 H67         4.0360   -1.0410   -0.4800 hn        1 MOL     -0.106293
    150 H68         4.8760   -0.5190   -3.2990 h1        1 MOL      0.097577
    151 H69         6.9070   -0.5700   -1.1990 hc        1 MOL      0.112555
    152 H70         7.2810   -0.5880   -2.9640 hc        1 MOL      0.112555
    153 H71         6.2660   -2.7600   -3.2190 hc        1 MOL     -0.036280
    154 H72         6.3000   -2.9970   -1.4640 hc        1 MOL     -0.036280
    155 H73         8.5640   -2.8070   -1.3270 hc        1 MOL      0.023530
    156 H74         8.6980   -2.2830   -3.0800 hc        1 MOL      0.023530
    157 H75         7.8060   -4.6260   -3.6970 hx        1 MOL      0.055795
    158 H76         7.6710   -4.8110   -1.8740 hx        1 MOL      0.055795
    159 H77         9.6330   -5.9250   -2.7140 hn        1 MOL      0.248987
    160 H78        10.1430   -4.6800   -3.6110 hn        1 MOL      0.248987
    161 H79        10.1600   -4.6960   -1.9510 hn        1 MOL      0.248987
    162 N14         4.8000    1.6450   -0.7590 n         1 MOL     -0.145010
    163 C49         4.8760    3.0660   -0.3760 c3        1 MOL     -0.089834
    164 C50         6.3490    3.4020   -0.0130 c         1 MOL      0.294591
    165 O22         6.9670    2.8050    0.9050 o         1 MOL     -0.493902
    166 C51         3.8850    3.4210    0.6870 c3        1 MOL      0.271681
    167 C52         3.8950    4.8900    1.1830 c3        1 MOL     -0.840406
    168 C53         3.7260    5.8510   -0.0000 c         1 MOL      0.928003
    169 O23         2.5590    6.1490   -0.3760 o         1 MOL     -0.793934
    170 O24         4.7280    6.3710   -0.5740 o         1 MOL     -0.793934
    171 H80         4.5190    1.0430   -0.0010 hn        1 MOL      0.086994
    172 H81         4.5990    3.5910   -1.2860 h1        1 MOL      0.064099
    173 H82         4.1090    2.8260    1.5660 hc        1 MOL     -0.018637
    174 H83         2.8920    3.2530    0.2800 hc        1 MOL     -0.018637
    175 H84         4.7540    5.0640    1.8350 hc        1 MOL      0.255659
    176 H85         3.0350    4.9350    1.8630 hc        1 MOL      0.255659
    177 N15         6.8880    4.3930   -0.7170 n         1 MOL     -0.132118
    178 C54         8.3280    4.6680   -0.4740 c3        1 MOL     -0.044715
    179 H86         8.4370    5.6460   -0.0070 h1        1 MOL      0.049096
    180 H87         8.7390    3.9030    0.1850 h1        1 MOL      0.049096
    181 H88         8.8650    4.6570   -1.4220 h1        1 MOL      0.049096
    182 H89         6.2980    4.8450   -1.4040 hn        1 MOL      0.295045
    183 Ca1         0.1530    5.3770   -1.2350 Ca        1 MOL      1.729688
    184 O25        -2.4440    5.7070   -1.0120 oh        1 MOL     -0.837625
    185 H90        -3.1670    5.6040   -1.6370 ho        1 MOL      0.424324
    186 H91        -2.8790    5.8480   -0.1670 ho        1 MOL      0.424324
    187 O26        -1.1700    5.0350   -3.5740 oh        1 MOL     -0.837625
    188 H92        -1.4480    4.1250   -3.5930 ho        1 MOL      0.424324
    189 H93        -1.6770    5.4650   -4.2630 ho        1 MOL      0.424324
    190 O27         1.8520    4.7480   -3.1540 oh        1 MOL     -0.837625
    191 H94         2.6790    5.2140   -3.1190 ho        1 MOL      0.424324
    192 H95         2.0490    3.9610   -3.6650 ho        1 MOL      0.424324
@<TRIPOS>BOND
     1    1    2 1   
     2    1    4 1   
     3    1    5 1   
     4    1    6 1   
     5    2    3 2   
     6    2    7 1   
     7    7    8 1   
     8    7   15 1   
     9    8    9 1   
    10    8   11 1   
    11    8   16 1   
    12    9   10 2   
    13    9   19 1   
    14   11   12 1   
    15   11   17 1   
    16   11   18 1   
    17   12   13 1   
    18   12   14 1   
    19   19   20 1   
    20   19   28 1   
    21   20   21 1   
    22   20   23 1   
    23   20   29 1   
    24   21   22 2   
    25   21   41 1   
    26   23   24 1   
    27   23   30 1   
    28   23   31 1   
    29   24   25 1   
    30   24   32 1   
    31   24   33 1   
    32   25   26 1   
    33   25   34 1   
    34   25   35 1   
    35   26   27 1   
    36   26   36 1   
    37   26   37 1   
    38   27   38 1   
    39   27   39 1   
    40   27   40 1   
    41   41   42 1   
    42   41   49 1   
    43   42   43 1   
    44   42   45 1   
    45   42   50 1   
    46   43   44 2   
    47   43   53 1   
    48   45   46 1   
    49   45   51 1   
    50   45   52 1   
    51   46   47 1   
    52   46   48 1   
    53   53   54 1   
    54   53   57 1   
    55   54   55 1   
    56   54   58 1   
    57   54   59 1   
    58   55   56 2   
    59   55   60 1   
    60   60   61 1   
    61   60   68 1   
    62   61   62 1   
    63   61   64 1   
    64   61   69 1   
    65   62   63 2   
    66   62   72 1   
    67   64   65 1   
    68   64   70 1   
    69   64   71 1   
    70   65   66 1   
    71   65   67 1   
    72   72   73 1   
    73   72   76 1   
    74   73   74 1   
    75   73   77 1   
    76   73   78 1   
    77   74   75 2   
    78   74   79 1   
    79   79   80 1   
    80   79   86 1   
    81   80   81 1   
    82   80   83 1   
    83   80   87 1   
    84   81   82 2   
    85   81   93 1   
    86   83   84 1   
    87   83   85 1   
    88   83   88 1   
    89   84   90 1   
    90   84   91 1   
    91   84   92 1   
    92   85   89 1   
    93   93   94 1   
    94   93  101 1   
    95   94   95 1   
    96   94   97 1   
    97   94  102 1   
    98   95   96 2   
    99   95  112 1   
   100   97   98 1   
   101   97   99 1   
   102   97  103 1   
   103   98  100 1   
   104   98  104 1   
   105   98  105 1   
   106   99  106 1   
   107   99  107 1   
   108   99  108 1   
   109  100  109 1   
   110  100  110 1   
   111  100  111 1   
   112  112  113 1   
   113  112  119 1   
   114  113  114 1   
   115  113  116 1   
   116  113  120 1   
   117  114  115 2   
   118  114  126 1   
   119  116  117 1   
   120  116  118 1   
   121  116  121 1   
   122  117  123 1   
   123  117  124 1   
   124  117  125 1   
   125  118  122 1   
   126  126  127 1   
   127  126  133 1   
   128  127  128 1   
   129  127  130 1   
   130  127  134 1   
   131  128  129 2   
   132  128  140 1   
   133  130  131 1   
   134  130  132 1   
   135  130  135 1   
   136  131  137 1   
   137  131  138 1   
   138  131  139 1   
   139  132  136 1   
   140  140  141 1   
   141  140  149 1   
   142  141  142 1   
   143  141  144 1   
   144  141  150 1   
   145  142  143 2   
   146  142  162 1   
   147  144  145 1   
   148  144  151 1   
   149  144  152 1   
   150  145  146 1   
   151  145  153 1   
   152  145  154 1   
   153  146  147 1   
   154  146  155 1   
   155  146  156 1   
   156  147  148 1   
   157  147  157 1   
   158  147  158 1   
   159  148  159 1   
   160  148  160 1   
   161  148  161 1   
   162  162  163 1   
   163  162  171 1   
   164  163  164 1   
   165  163  166 1   
   166  163  172 1   
   167  164  165 2   
   168  164  177 1   
   169  166  167 1   
   170  166  173 1   
   171  166  174 1   
   172  167  168 1   
   173  167  175 1   
   174  167  176 1   
   175  168  169 1   
   176  168  170 1   
   177  177  178 1   
   178  177  182 1   
   179  178  179 1   
   180  178  180 1   
   181  178  181 1   
   182  184  185 1   
   183  184  186 1   
   184  187  188 1   
   185  187  189 1   
   186  190  191 1   
   187  190  192 1   
@<TRIPOS>SUBSTRUCTURE
     1 MOL         1 TEMP              0 ****  ****    0 ROOT
