@<TRIPOS>MOLECULE
MOL
  188   182     1     0     0
SMALL
resp


@<TRIPOS>ATOM
      1 C1         -5.9780   -2.0140    3.0880 c3        1 MOL     -0.476622
      2 C2         -6.0270   -1.9870    1.5490 c         1 MOL      0.666682
      3 O1         -5.1830   -1.3630    0.9070 o         1 MOL     -0.478977
      4 H1         -6.8760   -1.5430    3.4880 hc        1 MOL      0.122692
      5 H2         -5.9250   -3.0470    3.4330 hc        1 MOL      0.122692
      6 H3         -5.0990   -1.4700    3.4340 hc        1 MOL      0.122692
      7 N1         -7.1530   -2.4260    0.9720 n         1 MOL     -0.448368
      8 C3         -7.3740   -2.1560   -0.4420 c3        1 MOL     -0.201038
      9 C4         -7.2550   -0.6650   -0.8970 c         1 MOL      0.665184
     10 O2         -6.8460   -0.3840   -2.0670 o         1 MOL     -0.507099
     11 C5         -6.7820   -3.1980   -1.3860 c3        1 MOL     -0.077466
     12 C6         -6.9320   -4.6860   -1.0030 c         1 MOL      0.657146
     13 O3         -6.1620   -5.5930   -1.4570 o         1 MOL     -0.626643
     14 O4         -7.8620   -5.0380   -0.2530 o         1 MOL     -0.626643
     15 H4         -7.8360   -2.9670    1.4900 hn        1 MOL      0.304006
     16 H5         -8.4200   -2.4370   -0.5650 h1        1 MOL      0.093843
     17 H6         -5.6980   -3.0420   -1.4840 hc        1 MOL      0.046214
     18 H7         -7.0760   -3.1440   -2.4350 hc        1 MOL      0.046214
     19 N2         -7.6590    0.2610   -0.0420 n         1 MOL     -0.555920
     20 C7         -7.7280    1.6770   -0.3380 c3        1 MOL     -0.069904
     21 C8         -6.4010    2.2970   -0.6870 c         1 MOL      0.607452
     22 O5         -6.3420    3.3650   -1.2510 o         1 MOL     -0.569596
     23 C9         -8.3440    2.5480    0.8200 c3        1 MOL      0.028061
     24 C10        -9.7820    2.1550    1.2380 c3        1 MOL     -0.012615
     25 C11       -10.3520    3.1010    2.2830 c3        1 MOL     -0.030689
     26 C12       -11.7930    2.6840    2.6420 c3        1 MOL      0.050806
     27 N3        -12.7220    3.2070    1.6040 n4        1 MOL     -0.220427
     28 H8         -8.0710    0.0370    0.8600 hn        1 MOL      0.297596
     29 H9         -8.4230    1.8070   -1.1700 h1        1 MOL      0.099658
     30 H10        -8.2790    3.6050    0.5600 hc        1 MOL      0.028594
     31 H11        -7.6360    2.4750    1.6500 hc        1 MOL      0.028594
     32 H12        -9.6190    1.1560    1.6460 hc        1 MOL      0.015649
     33 H13       -10.3480    2.2150    0.3090 hc        1 MOL      0.015649
     34 H14       -10.3460    4.1300    1.9060 hc        1 MOL      0.044502
     35 H15        -9.7250    3.0700    3.1680 hc        1 MOL      0.044502
     36 H16       -12.1220    3.0140    3.6360 hx        1 MOL      0.062208
     37 H17       -11.9580    1.6050    2.6680 hx        1 MOL      0.062208
     38 H18       -12.7360    2.5070    0.8840 hn        1 MOL      0.236985
     39 H19       -13.6450    3.2150    2.0220 hn        1 MOL      0.236985
     40 H20       -12.6370    4.1570    1.2790 hn        1 MOL      0.236985
     41 N4         -5.3320    1.6110   -0.2070 n         1 MOL     -0.464206
     42 C13        -4.0000    2.1460   -0.3590 c3        1 MOL      0.100921
     43 C14        -3.6210    2.1250   -1.8450 c         1 MOL      0.533075
     44 O6         -3.8450    1.1100   -2.5270 o         1 MOL     -0.431742
     45 C15        -3.0090    1.3140    0.4880 c3        1 MOL     -0.001569
     46 C16        -1.6570    1.9690    0.5290 c         1 MOL      0.825622
     47 O7         -0.8920    1.9240   -0.4380 o         1 MOL     -0.813165
     48 O8         -1.4610    2.6640    1.5620 o         1 MOL     -0.813165
     49 H21        -5.3610    0.6510    0.1000 hn        1 MOL      0.255583
     50 H22        -4.0240    3.1380    0.0990 h1        1 MOL      0.032114
     51 H23        -2.9470    0.3940   -0.0860 hc        1 MOL     -0.026588
     52 H24        -3.3900    1.1450    1.4940 hc        1 MOL     -0.026588
     53 N5         -2.9150    3.1820   -2.3110 n         1 MOL     -0.483384
     54 C17        -2.4430    3.3040   -3.7050 c3        1 MOL      0.019821
     55 C18        -1.5030    2.2480   -4.2220 c         1 MOL      0.349574
     56 O9         -1.4280    1.9850   -5.4280 o         1 MOL     -0.540370
     57 H25        -2.8470    3.9310   -1.6360 hn        1 MOL      0.298167
     58 H26        -2.0250    4.3010   -3.8150 h1        1 MOL      0.089715
     59 H27        -3.2100    3.4370   -4.4670 h1        1 MOL      0.089715
     60 N6         -0.7530    1.5400   -3.3700 n         1 MOL     -0.033765
     61 C19         0.1840    0.4750   -3.6520 c3        1 MOL      0.024104
     62 C20        -0.4310   -0.9510   -3.4250 c         1 MOL      0.289882
     63 O10         0.2620   -1.9420   -3.2380 o         1 MOL     -0.389435
     64 C21         1.4810    0.6580   -2.8420 c3        1 MOL     -0.306731
     65 C22         2.0390    1.9750   -3.1130 c         1 MOL      0.619372
     66 N7          2.8010    2.2010   -4.1410 n         1 MOL     -0.676558
     67 O11         1.8030    2.9160   -2.3610 o         1 MOL     -0.602414
     68 H28        -0.9070    1.6890   -2.3870 hn        1 MOL      0.159439
     69 H29         0.5410    0.5390   -4.6710 h1        1 MOL      0.085685
     70 H30         2.1550   -0.1910   -2.9700 hc        1 MOL      0.097757
     71 H31         1.2760    0.4310   -1.7940 hc        1 MOL      0.097757
     72 H32         3.3140    1.4550   -4.5840 hn        1 MOL      0.346547
     73 H33         3.2940    3.0820   -4.1180 hn        1 MOL      0.346547
     74 N8         -1.7320   -1.0010   -3.3060 n         1 MOL     -0.137000
     75 C23        -2.4900   -2.1990   -3.1070 c3        1 MOL     -0.160678
     76 C24        -2.1130   -3.0750   -1.9230 c         1 MOL      0.571973
     77 O12        -1.8890   -4.2680   -2.1010 o         1 MOL     -0.495595
     78 H34        -2.2770   -0.1540   -3.3750 hn        1 MOL      0.168167
     79 H35        -2.3020   -2.8690   -3.9500 h1        1 MOL      0.101625
     80 H36        -3.5470   -1.9410   -3.0810 h1        1 MOL      0.101625
     81 N9         -2.0760   -2.4630   -0.7070 n         1 MOL     -0.484260
     82 C25        -1.2740   -2.9710    0.4440 c3        1 MOL      0.217260
     83 C26         0.1570   -2.3760    0.5800 c         1 MOL      0.342637
     84 O13         0.3310   -1.2380    0.1860 o         1 MOL     -0.474113
     85 C27        -2.0920   -2.4730    1.6450 c3        1 MOL     -0.100460
     86 C28        -1.4040   -2.5050    2.9860 ca        1 MOL      0.004039
     87 C29        -1.0740   -3.7720    3.6210 ca        1 MOL     -0.138764
     88 C30        -1.0900   -1.3650    3.6350 ca        1 MOL     -0.138764
     89 C31        -0.4880   -3.8500    4.8880 ca        1 MOL     -0.222397
     90 C32        -0.4810   -1.4400    4.8960 ca        1 MOL     -0.222397
     91 C33        -0.2010   -2.6420    5.5690 ca        1 MOL      0.242887
     92 O14         0.4550   -2.7070    6.7850 oh        1 MOL     -0.418941
     93 H37        -2.5210   -1.5590   -0.6150 hn        1 MOL      0.278905
     94 H38        -1.1960   -4.0540    0.3360 h1        1 MOL      0.026494
     95 H39        -2.8870   -3.2040    1.5500 hc        1 MOL      0.073995
     96 H40        -2.5060   -1.4810    1.4670 hc        1 MOL      0.073995
     97 H41        -1.4010   -4.6950    3.1550 ha        1 MOL      0.125650
     98 H42        -1.3410   -0.4150    3.1760 ha        1 MOL      0.125650
     99 H43        -0.2350   -4.8110    5.3190 ha        1 MOL      0.142703
    100 H44        -0.2500   -0.4900    5.3490 ha        1 MOL      0.142703
    101 H45         0.2560   -1.8620    7.1940 ho        1 MOL      0.338408
    102 N10         1.1590   -3.0530    1.2030 n         1 MOL     -0.283083
    103 C34         2.4580   -2.4480    1.2880 c3        1 MOL     -0.106147
    104 C35         3.1520   -2.3570   -0.0640 c         1 MOL      0.485955
    105 O15         3.8300   -1.3540   -0.3350 o         1 MOL     -0.529654
    106 C36         3.3710   -3.3180    2.2640 c3        1 MOL     -0.191720
    107 C37         2.8330   -3.2780    3.7340 c3        1 MOL      0.199474
    108 C38         4.8300   -2.8570    2.1830 c3        1 MOL     -0.147898
    109 C39         2.8520   -1.8470    4.3300 c3        1 MOL     -0.264065
    110 H46         0.9260   -3.8340    1.7900 hn        1 MOL      0.225096
    111 H47         2.2710   -1.4660    1.7380 h1        1 MOL      0.151813
    112 H48         3.4380   -4.2950    1.7970 hc        1 MOL      0.037068
    113 H49         3.3960   -3.9630    4.3620 hc        1 MOL      0.004704
    114 H50         1.7990   -3.6100    3.6310 hc        1 MOL      0.004704
    115 H51         5.0520   -1.7900    2.2280 hc        1 MOL      0.061649
    116 H52         5.3250   -3.2540    3.0700 hc        1 MOL      0.061649
    117 H53         5.3490   -3.1040    1.2630 hc        1 MOL      0.061649
    118 H54         2.1580   -1.1610    3.8420 hc        1 MOL      0.057898
    119 H55         2.6230   -2.1360    5.3530 hc        1 MOL      0.057898
    120 H56         3.8700   -1.4440    4.3090 hc        1 MOL      0.057898
    121 N11         2.8820   -3.3350   -0.9390 n         1 MOL      0.005827
    122 C40         3.3820   -3.2220   -2.2770 c3        1 MOL     -0.457398
    123 C41         4.9360   -3.0320   -2.4290 c         1 MOL      0.435924
    124 O16         5.4010   -2.4080   -3.3960 o         1 MOL     -0.450298
    125 C42         2.9830   -4.4110   -3.1370 c3        1 MOL      0.394732
    126 O17         1.6010   -4.5730   -3.1130 oh        1 MOL     -0.560208
    127 H57         2.2290   -4.0590   -0.6870 hn        1 MOL      0.170443
    128 H58         2.8350   -2.3520   -2.6440 h1        1 MOL      0.192834
    129 H59         3.4470   -5.3250   -2.7730 h1        1 MOL     -0.000174
    130 H60         3.3970   -4.2780   -4.1340 h1        1 MOL     -0.000174
    131 H61         1.1960   -3.6980   -3.1000 ho        1 MOL      0.311303
    132 N12         5.7450   -3.4890   -1.4100 n         1 MOL     -0.337781
    133 C43         7.1760   -3.2990   -1.1930 c3        1 MOL      0.305311
    134 C44         7.5640   -1.7910   -1.4130 c         1 MOL      0.347507
    135 O18         8.6620   -1.4980   -1.8820 o         1 MOL     -0.529396
    136 C45         8.0730   -4.3940   -1.8650 c3        1 MOL     -0.317046
    137 H62         5.2520   -3.9830   -0.6880 hn        1 MOL      0.206003
    138 H63         7.1950   -3.6120   -0.1440 h1        1 MOL     -0.003417
    139 H64         7.5780   -5.3650   -1.8800 hc        1 MOL      0.090092
    140 H65         8.1660   -4.1650   -2.9180 hc        1 MOL      0.090092
    141 H66         9.0510   -4.4600   -1.3770 hc        1 MOL      0.090092
    142 N13         6.7050   -0.8980   -0.9810 n         1 MOL     -0.341804
    143 C46         6.8240    0.5150   -1.2600 c3        1 MOL      0.752786
    144 C47         6.6050    1.3030    0.1010 c         1 MOL     -0.012231
    145 O19         5.8010    0.9760    0.9760 o         1 MOL     -0.315233
    146 C48         5.8330    0.9550   -2.3510 c3        1 MOL     -0.633007
    147 H67         5.8410   -1.2810   -0.6260 hn        1 MOL      0.079656
    148 H68         7.8280    0.7240   -1.6280 h1        1 MOL     -0.057650
    149 H69         5.8800    2.0400   -2.3700 hc        1 MOL      0.154950
    150 H70         6.2040    0.4380   -3.2330 hc        1 MOL      0.154950
    151 H71         4.8230    0.6560   -2.0890 hc        1 MOL      0.154950
    152 N14         7.3920    2.3390    0.2430 n         1 MOL     -0.428935
    153 C49         7.3880    3.2590    1.4330 c3        1 MOL     -0.137657
    154 C50         7.7710    2.5130    2.7450 c         1 MOL      0.485687
    155 O20         7.4250    2.9520    3.8290 o         1 MOL     -0.507250
    156 C51         6.0030    4.0240    1.4600 c3        1 MOL      0.087264
    157 C52         5.5550    4.4150    0.0160 c3        1 MOL     -0.071519
    158 C53         4.3420    5.3360    0.1200 c         1 MOL      0.589596
    159 O21         4.5660    6.6020    0.0770 o         1 MOL     -0.671215
    160 O22         3.2060    4.8080   -0.0240 o         1 MOL     -0.671215
    161 H72         8.1660    2.4970   -0.3730 hn        1 MOL      0.319348
    162 H73         8.1290    4.0200    1.1800 h1        1 MOL      0.120775
    163 H74         6.0680    4.8680    2.1390 hc        1 MOL      0.006855
    164 H75         5.3010    3.2960    1.8510 hc        1 MOL      0.006855
    165 H76         5.3890    3.5130   -0.5730 hc        1 MOL      0.012711
    166 H77         6.3640    4.9860   -0.4420 hc        1 MOL      0.012711
    167 N15         8.5390    1.4660    2.6280 n         1 MOL     -0.201117
    168 C54         9.1420    0.7420    3.7470 c3        1 MOL     -0.289686
    169 H78         9.9730    0.1370    3.3820 h1        1 MOL      0.121231
    170 H79         9.5090    1.4540    4.4850 h1        1 MOL      0.121231
    171 H80         8.3950    0.0940    4.2060 h1        1 MOL      0.121231
    172 H81         8.8800    1.2030    1.7180 hn        1 MOL      0.234195
    173 Ca1         1.0910    3.2240    0.4850 Ca        1 MOL      1.750601
    174 O23        -0.4170    5.1010   -0.8380 oh        1 MOL     -0.858409
    175 H82        -1.0660    5.7580   -0.5790 ho        1 MOL      0.423497
    176 H83         0.1780    5.5740   -1.4170 ho        1 MOL      0.423497
    177 O24         0.9000    0.8430    2.1010 oh        1 MOL     -0.858409
    178 H84         0.1300    0.6820    2.6470 ho        1 MOL      0.423497
    179 H85         0.9160    0.1130    1.4840 ho        1 MOL      0.423497
    180 O25         0.7770    5.5590    1.7980 oh        1 MOL     -0.858409
    181 H86         0.1980    6.3140    1.7310 ho        1 MOL      0.423497
    182 H87         0.8910    5.4340    2.7340 ho        1 MOL      0.423497
    183 O26         2.5220    3.1450    2.7220 oh        1 MOL     -0.858409
    184 H88         3.0290    2.3960    3.0440 ho        1 MOL      0.423497
    185 H89         2.4430    3.7290    3.4800 ho        1 MOL      0.423497
    186 O27         3.1150    1.1370    0.3340 oh        1 MOL     -0.858409
    187 H90         3.9940    1.4740    0.4840 ho        1 MOL      0.423497
    188 H91         3.2510    0.2340    0.0330 ho        1 MOL      0.423497
@<TRIPOS>BOND
     1    1    2 1   
     2    1    4 1   
     3    1    5 1   
     4    1    6 1   
     5    2    3 2   
     6    2    7 1   
     7    7    8 1   
     8    7   15 1   
     9    8    9 1   
    10    8   11 1   
    11    8   16 1   
    12    9   10 2   
    13    9   19 1   
    14   11   12 1   
    15   11   17 1   
    16   11   18 1   
    17   12   13 1   
    18   12   14 1   
    19   19   20 1   
    20   19   28 1   
    21   20   21 1   
    22   20   23 1   
    23   20   29 1   
    24   21   22 2   
    25   21   41 1   
    26   23   24 1   
    27   23   30 1   
    28   23   31 1   
    29   24   25 1   
    30   24   32 1   
    31   24   33 1   
    32   25   26 1   
    33   25   34 1   
    34   25   35 1   
    35   26   27 1   
    36   26   36 1   
    37   26   37 1   
    38   27   38 1   
    39   27   39 1   
    40   27   40 1   
    41   41   42 1   
    42   41   49 1   
    43   42   43 1   
    44   42   45 1   
    45   42   50 1   
    46   43   44 2   
    47   43   53 1   
    48   45   46 1   
    49   45   51 1   
    50   45   52 1   
    51   46   47 1   
    52   46   48 1   
    53   53   54 1   
    54   53   57 1   
    55   54   55 1   
    56   54   58 1   
    57   54   59 1   
    58   55   56 2   
    59   55   60 1   
    60   60   61 1   
    61   60   68 1   
    62   61   62 1   
    63   61   64 1   
    64   61   69 1   
    65   62   63 2   
    66   62   74 1   
    67   64   65 1   
    68   64   70 1   
    69   64   71 1   
    70   65   66 1   
    71   65   67 2   
    72   66   72 1   
    73   66   73 1   
    74   74   75 1   
    75   74   78 1   
    76   75   76 1   
    77   75   79 1   
    78   75   80 1   
    79   76   77 2   
    80   76   81 1   
    81   81   82 1   
    82   81   93 1   
    83   82   83 1   
    84   82   85 1   
    85   82   94 1   
    86   83   84 2   
    87   83  102 1   
    88   85   86 1   
    89   85   95 1   
    90   85   96 1   
    91   86   87 ar  
    92   86   88 ar  
    93   87   89 ar  
    94   87   97 1   
    95   88   90 ar  
    96   88   98 1   
    97   89   91 ar  
    98   89   99 1   
    99   90   91 ar  
   100   90  100 1   
   101   91   92 1   
   102   92  101 1   
   103  102  103 1   
   104  102  110 1   
   105  103  104 1   
   106  103  106 1   
   107  103  111 1   
   108  104  105 2   
   109  104  121 1   
   110  106  107 1   
   111  106  108 1   
   112  106  112 1   
   113  107  109 1   
   114  107  113 1   
   115  107  114 1   
   116  108  115 1   
   117  108  116 1   
   118  108  117 1   
   119  109  118 1   
   120  109  119 1   
   121  109  120 1   
   122  121  122 1   
   123  121  127 1   
   124  122  123 1   
   125  122  125 1   
   126  122  128 1   
   127  123  124 2   
   128  123  132 1   
   129  125  126 1   
   130  125  129 1   
   131  125  130 1   
   132  126  131 1   
   133  132  133 1   
   134  132  137 1   
   135  133  134 1   
   136  133  136 1   
   137  133  138 1   
   138  134  135 2   
   139  134  142 1   
   140  136  139 1   
   141  136  140 1   
   142  136  141 1   
   143  142  143 1   
   144  142  147 1   
   145  143  144 1   
   146  143  146 1   
   147  143  148 1   
   148  144  145 2   
   149  144  152 1   
   150  146  149 1   
   151  146  150 1   
   152  146  151 1   
   153  152  153 1   
   154  152  161 1   
   155  153  154 1   
   156  153  156 1   
   157  153  162 1   
   158  154  155 2   
   159  154  167 1   
   160  156  157 1   
   161  156  163 1   
   162  156  164 1   
   163  157  158 1   
   164  157  165 1   
   165  157  166 1   
   166  158  159 1   
   167  158  160 1   
   168  167  168 1   
   169  167  172 1   
   170  168  169 1   
   171  168  170 1   
   172  168  171 1   
   173  174  175 1   
   174  174  176 1   
   175  177  178 1   
   176  177  179 1   
   177  180  181 1   
   178  180  182 1   
   179  183  184 1   
   180  183  185 1   
   181  186  187 1   
   182  186  188 1   
@<TRIPOS>SUBSTRUCTURE
     1 MOL         1 TEMP              0 ****  ****    0 ROOT
