@<TRIPOS>MOLECULE
MOL
  192   187     1     0     0
SMALL
resp


@<TRIPOS>ATOM
      1 C1         12.3880    6.2510   -1.6360 c3        1 MOL     -0.402430
      2 C2         12.1880    5.0060   -0.7580 c         1 MOL      0.619306
      3 O1         13.1850    4.2900   -0.3780 o         1 MOL     -0.574431
      4 H1         13.3580    6.1940   -2.1310 hc        1 MOL      0.115203
      5 H2         11.6000    6.2990   -2.3870 hc        1 MOL      0.115203
      6 H3         12.3520    7.1450   -1.0130 hc        1 MOL      0.115203
      7 N1         10.9370    4.6370   -0.3690 n         1 MOL     -0.180126
      8 C3         10.6400    3.5390    0.5800 c3        1 MOL     -0.396334
      9 C4          9.5500    2.6870   -0.0330 c         1 MOL      0.549894
     10 O2          8.5620    3.2410   -0.5890 o         1 MOL     -0.617511
     11 C5         10.3130    4.0830    1.9500 c3        1 MOL     -0.242893
     12 C6          9.3480    5.2210    2.0830 c         1 MOL      0.723697
     13 O3          9.3410    5.8660    3.1310 o         1 MOL     -0.693037
     14 O4          8.5570    5.5180    1.1540 o         1 MOL     -0.693037
     15 H4         10.1390    5.1270   -0.7640 hn        1 MOL      0.130469
     16 H5         11.5120    2.8920    0.6540 h1        1 MOL      0.171055
     17 H6         11.2190    4.5950    2.2790 hc        1 MOL      0.142877
     18 H7         10.0040    3.2700    2.6030 hc        1 MOL      0.142877
     19 N2          9.5900    1.3680    0.1770 n         1 MOL     -0.321387
     20 C7          8.6530    0.3840   -0.4050 c3        1 MOL     -0.049501
     21 C8          7.6600   -0.1230    0.7000 c         1 MOL      0.685224
     22 O5          8.0390   -0.4550    1.8110 o         1 MOL     -0.540297
     23 C9          9.4320   -0.8390   -0.9600 c3        1 MOL     -0.208626
     24 C10         8.5250   -1.9790   -1.4820 c3        1 MOL      0.180106
     25 C11         9.3810   -3.0840   -2.1190 c3        1 MOL      0.006852
     26 C12         8.6000   -4.1490   -2.9480 c3        1 MOL      0.052898
     27 N3          9.2940   -5.4830   -3.0680 n4        1 MOL     -0.254584
     28 H8         10.3280    0.9750    0.7380 hn        1 MOL      0.303510
     29 H9          8.0390    0.7790   -1.2150 h1        1 MOL      0.108520
     30 H10        10.0830   -1.2560   -0.1910 hc        1 MOL      0.068494
     31 H11        10.1510   -0.5650   -1.7250 hc        1 MOL      0.068494
     32 H12         7.8690   -1.5190   -2.2250 hc        1 MOL     -0.018876
     33 H13         7.8840   -2.4810   -0.7470 hc        1 MOL     -0.018876
     34 H14         9.8890   -3.5450   -1.2730 hc        1 MOL      0.014351
     35 H15        10.1170   -2.6200   -2.7820 hc        1 MOL      0.014351
     36 H16         8.3930   -3.7480   -3.9370 hx        1 MOL      0.062273
     37 H17         7.6780   -4.3570   -2.4020 hx        1 MOL      0.062273
     38 H18        10.1940   -5.4650   -3.5170 hn        1 MOL      0.249241
     39 H19         9.3880   -5.9220   -2.1620 hn        1 MOL      0.249241
     40 H20         8.7130   -6.1150   -3.6050 hn        1 MOL      0.249241
     41 N4          6.3830   -0.1680    0.3720 n         1 MOL     -0.827881
     42 C13         5.2380   -0.5310    1.2310 c3        1 MOL      0.553210
     43 C14         3.9570   -0.9410    0.3970 c         1 MOL      0.232753
     44 O6          3.7780   -0.5230   -0.7700 o         1 MOL     -0.447569
     45 C15         4.9570    0.6860    2.1910 c3        1 MOL     -0.424824
     46 C16         4.7490    2.0080    1.4410 c         1 MOL      0.784880
     47 O7          5.7290    2.7630    1.2480 o         1 MOL     -0.698711
     48 O8          3.6340    2.1290    0.8250 o         1 MOL     -0.698711
     49 H21         6.1430    0.1260   -0.5650 hn        1 MOL      0.312577
     50 H22         5.5730   -1.3710    1.8470 h1        1 MOL      0.027041
     51 H23         5.8530    0.6770    2.8040 hc        1 MOL      0.103240
     52 H24         4.0340    0.5670    2.7570 hc        1 MOL      0.103240
     53 N5          2.9200   -1.6000    0.9750 n         1 MOL     -0.201960
     54 C17         2.9410   -2.4500    2.1340 c3        1 MOL     -0.057768
     55 C18         2.4690   -3.9110    1.9690 c         1 MOL      0.564570
     56 O9          2.6510   -4.5140    0.9430 o         1 MOL     -0.525771
     57 H25         2.0550   -1.7580    0.4690 hn        1 MOL      0.255960
     58 H26         2.3700   -2.0800    2.9850 h1        1 MOL      0.039025
     59 H27         3.9570   -2.4480    2.5350 h1        1 MOL      0.039025
     60 N6          1.7740   -4.3790    3.0530 n         1 MOL     -0.333259
     61 C19         1.2510   -5.7170    3.1440 c3        1 MOL     -0.017639
     62 C20         0.1320   -5.8940    2.0710 c         1 MOL      0.704329
     63 O10        -0.6650   -4.9530    1.8580 o         1 MOL     -0.594289
     64 C21         0.6820   -6.0230    4.5440 c3        1 MOL     -0.390713
     65 C22         1.6690   -5.7760    5.6900 c         1 MOL      0.710224
     66 O11         1.6250   -4.7170    6.3520 o         1 MOL     -0.637732
     67 O12         2.6820   -6.5020    5.7910 o         1 MOL     -0.637732
     68 H28         1.6220   -3.7390    3.8130 hn        1 MOL      0.282376
     69 H29         2.0480   -6.4260    2.9140 h1        1 MOL      0.064627
     70 H30         0.4640   -7.0840    4.6520 hc        1 MOL      0.115693
     71 H31        -0.2710   -5.5210    4.6500 hc        1 MOL      0.115693
     72 N7          0.0070   -7.0300    1.4320 n         1 MOL     -0.553335
     73 C23        -0.8480   -7.2090    0.1920 c3        1 MOL      0.071243
     74 C24        -0.6090   -6.2920   -0.9720 c         1 MOL      0.392082
     75 O13        -1.3800   -6.3620   -1.9310 o         1 MOL     -0.541061
     76 H32         0.8270   -7.6190    1.5100 hn        1 MOL      0.301718
     77 H33        -1.9200   -7.1630    0.3700 h1        1 MOL      0.075500
     78 H34        -0.6710   -8.2110   -0.1860 h1        1 MOL      0.075500
     79 N8          0.4410   -5.4590   -0.9990 n         1 MOL     -0.190310
     80 C25         0.6790   -4.3490   -2.0060 c3        1 MOL     -0.009831
     81 C26         0.2280   -2.9510   -1.5460 c         1 MOL      0.213508
     82 O14         0.6350   -2.5020   -0.4730 o         1 MOL     -0.390452
     83 C27         2.1710   -4.2380   -2.3340 c3        1 MOL      0.564987
     84 C28         2.9210   -5.5390   -2.6880 c3        1 MOL     -0.292299
     85 O15         2.2840   -3.4280   -3.4830 oh        1 MOL     -0.711872
     86 H35         0.7860   -5.2560   -0.0750 hn        1 MOL      0.061876
     87 H36         0.1640   -4.7420   -2.8820 h1        1 MOL      0.090920
     88 H37         2.7070   -3.7740   -1.5050 h1        1 MOL     -0.066557
     89 H38         3.0850   -2.9060   -3.3270 ho        1 MOL      0.371992
     90 H39         2.9150   -6.1580   -1.7970 hc        1 MOL      0.053069
     91 H40         2.4330   -6.1450   -3.4500 hc        1 MOL      0.053069
     92 H41         3.9570   -5.3150   -2.9710 hc        1 MOL      0.053069
     93 N9         -0.5190   -2.2100   -2.4140 n         1 MOL     -0.068098
     94 C29        -1.0220   -0.8090   -2.3120 c3        1 MOL     -0.386746
     95 C30        -2.4210   -0.7310   -1.5840 c         1 MOL      0.677980
     96 O16        -2.7300    0.3390   -0.9840 o         1 MOL     -0.566334
     97 C31        -1.0210   -0.0530   -3.6910 c3        1 MOL      0.163011
     98 C32         0.2920   -0.2090   -4.4740 c3        1 MOL      0.183326
     99 C33        -1.1710    1.4690   -3.4720 c3        1 MOL     -0.367847
    100 C34         0.4530    0.5160   -5.8290 c3        1 MOL     -0.460683
    101 H42        -0.8200   -2.6720   -3.2600 hn        1 MOL      0.220515
    102 H43        -0.3320   -0.2470   -1.6900 h1        1 MOL      0.184883
    103 H44        -1.8370   -0.3780   -4.3490 hc        1 MOL      0.010736
    104 H45         0.1120   -1.2500   -4.7580 hc        1 MOL     -0.007588
    105 H46         1.1950   -0.1510   -3.8590 hc        1 MOL     -0.007588
    106 H47        -0.3380    1.8180   -2.8540 hc        1 MOL      0.099278
    107 H48        -1.1400    2.0870   -4.3670 hc        1 MOL      0.099278
    108 H49        -2.1160    1.6760   -2.9770 hc        1 MOL      0.099278
    109 H50        -0.3950    0.3190   -6.4780 hc        1 MOL      0.111342
    110 H51         0.5900    1.5800   -5.6090 hc        1 MOL      0.111342
    111 H52         1.3900    0.2920   -6.3400 hc        1 MOL      0.111342
    112 N10        -3.2490   -1.7560   -1.5850 n         1 MOL     -0.489314
    113 C35        -4.3460   -1.9400   -0.5990 c3        1 MOL      0.205863
    114 C36        -5.6890   -2.1580   -1.2690 c         1 MOL      0.463547
    115 O17        -5.7250   -3.0200   -2.1640 o         1 MOL     -0.521978
    116 C37        -4.2020   -3.0590    0.4180 c3        1 MOL      0.315174
    117 C38        -3.1990   -4.1700    0.1180 c3        1 MOL     -0.093570
    118 O18        -3.7700   -2.6480    1.7000 oh        1 MOL     -0.621264
    119 H53        -2.9680   -2.5840   -2.1040 hn        1 MOL      0.263378
    120 H54        -4.4850   -1.0510    0.0200 h1        1 MOL      0.041188
    121 H55        -5.1020   -3.6370    0.5730 h1        1 MOL     -0.010633
    122 H56        -4.5150   -2.7840    2.2960 ho        1 MOL      0.379543
    123 H57        -2.2040   -3.9220    0.5000 hc        1 MOL      0.042565
    124 H58        -3.4460   -5.1280    0.5640 hc        1 MOL      0.042565
    125 H59        -2.9850   -4.3140   -0.9380 hc        1 MOL      0.042565
    126 N11        -6.7180   -1.4410   -0.7850 n         1 MOL     -0.581551
    127 C39        -8.1220   -1.6830   -1.1860 c3        1 MOL      0.234434
    128 C40        -8.9630   -0.4460   -1.3880 c         1 MOL      0.559707
    129 O19        -9.5110   -0.2890   -2.4850 o         1 MOL     -0.581483
    130 C41        -8.6550   -2.7130   -0.1400 c3        1 MOL      0.053415
    131 C42        -9.9830   -3.3550   -0.3720 c3        1 MOL     -0.410834
    132 O20        -8.6760   -2.2050    1.1080 oh        1 MOL     -0.629326
    133 H60        -6.6730   -0.8620    0.0360 hn        1 MOL      0.306452
    134 H61        -8.1660   -2.1730   -2.1670 h1        1 MOL      0.065431
    135 H62        -7.9060   -3.5040   -0.0720 h1        1 MOL      0.080546
    136 H63        -8.7810   -2.9970    1.6400 ho        1 MOL      0.438290
    137 H64       -10.0000   -3.9670   -1.2730 hc        1 MOL      0.112480
    138 H65       -10.3080   -3.9750    0.4650 hc        1 MOL      0.112480
    139 H66       -10.7690   -2.5940   -0.4530 hc        1 MOL      0.112480
    140 N12        -8.9720    0.3860   -0.3760 n         1 MOL     -0.374292
    141 C43        -9.6370    1.7500   -0.2630 c3        1 MOL      0.032891
    142 C44        -8.7470    2.6360    0.5370 c         1 MOL      0.407533
    143 O21        -8.1310    2.1390    1.4570 o         1 MOL     -0.486795
    144 C45       -11.0960    1.7010    0.1820 c3        1 MOL      0.031104
    145 C46       -11.9960    0.8320   -0.6430 c3        1 MOL     -0.103484
    146 C47       -13.3850    0.8680    0.0410 c3        1 MOL      0.026523
    147 C48       -13.7310   -0.3060    0.9330 c3        1 MOL     -0.036110
    148 N13       -15.1040   -0.3440    1.2350 n4        1 MOL     -0.124177
    149 H67        -8.3600    0.1340    0.3860 hn        1 MOL      0.255390
    150 H68        -9.6040    2.1930   -1.2540 h1        1 MOL      0.065402
    151 H69       -11.3430    2.7640    0.2210 hc        1 MOL      0.031169
    152 H70       -11.1050    1.3130    1.1970 hc        1 MOL      0.031169
    153 H71       -11.7290   -0.2330   -0.6710 hc        1 MOL      0.061514
    154 H72       -11.9710    1.3140   -1.6200 hc        1 MOL      0.061514
    155 H73       -14.1300    1.0670   -0.7280 hc        1 MOL      0.015618
    156 H74       -13.4510    1.7660    0.6640 hc        1 MOL      0.015618
    157 H75       -13.1090   -0.1440    1.8110 hx        1 MOL      0.084691
    158 H76       -13.4120   -1.1800    0.3720 hx        1 MOL      0.084691
    159 H77       -15.6580   -0.5630    0.4250 hn        1 MOL      0.215901
    160 H78       -15.3830   -1.0630    1.9010 hn        1 MOL      0.215901
    161 H79       -15.4540    0.5640    1.5070 hn        1 MOL      0.215901
    162 N14        -8.6940    3.8750    0.2680 n         1 MOL     -0.312431
    163 C49        -8.1010    4.9100    1.1190 c3        1 MOL      0.039599
    164 C50        -6.5890    4.7560    1.1990 c         1 MOL      0.428078
    165 O22        -6.0550    4.7910    2.2980 o         1 MOL     -0.531695
    166 C51        -8.5290    6.3050    0.6630 c3        1 MOL      0.149641
    167 C52        -9.9370    6.5960    0.9870 c3        1 MOL     -0.413129
    168 C53       -10.4480    7.9680    0.5420 c         1 MOL      0.729984
    169 O23       -10.1800    8.2370   -0.6280 o         1 MOL     -0.643335
    170 O24       -11.1620    8.8070    1.1750 o         1 MOL     -0.643335
    171 H80        -9.4630    4.1460   -0.3200 hn        1 MOL      0.235007
    172 H81        -8.4440    4.7710    2.1410 h1        1 MOL      0.076787
    173 H82        -8.3530    6.4130   -0.4100 hc        1 MOL      0.025936
    174 H83        -7.8010    7.0350    1.0410 hc        1 MOL      0.025936
    175 H84       -10.1630    6.3960    2.0370 hc        1 MOL      0.068029
    176 H85       -10.5090    5.8320    0.4690 hc        1 MOL      0.068029
    177 N15        -5.8350    4.6870    0.1150 n         1 MOL     -0.366547
    178 C54        -6.0150    5.2080   -1.3130 c3        1 MOL     -0.001802
    179 H86        -5.0460    5.2510   -1.8090 h1        1 MOL      0.044403
    180 H87        -6.6750    4.5390   -1.8640 h1        1 MOL      0.044403
    181 H88        -6.4510    6.2070   -1.2830 h1        1 MOL      0.044403
    182 H89        -4.8580    4.6200    0.3720 hn        1 MOL      0.286729
    183 Ca1         6.5150    4.7400    0.0210 Ca        1 MOL      1.762820
    184 O25         5.7260    5.4630    2.3450 oh        1 MOL     -0.932637
    185 H90         4.9470    5.1270    2.7800 ho        1 MOL      0.447920
    186 H91         6.0390    6.1660    2.9100 ho        1 MOL      0.447920
    187 O26         5.7550    3.5520   -2.2810 oh        1 MOL     -0.932637
    188 H92         5.6090    2.6020   -2.2810 ho        1 MOL      0.447920
    189 H93         6.2340    3.7160   -3.0940 ho        1 MOL      0.447920
    190 O27         3.7930    4.5790   -0.0860 oh        1 MOL     -0.932637
    191 H94         2.9540    4.9780   -0.3320 ho        1 MOL      0.447920
    192 H95         3.5830    3.6750    0.1110 ho        1 MOL      0.447920
@<TRIPOS>BOND
     1    1    2 1   
     2    1    4 1   
     3    1    5 1   
     4    1    6 1   
     5    2    3 2   
     6    2    7 1   
     7    7    8 1   
     8    7   15 1   
     9    8    9 1   
    10    8   11 1   
    11    8   16 1   
    12    9   10 2   
    13    9   19 1   
    14   11   12 1   
    15   11   17 1   
    16   11   18 1   
    17   12   13 1   
    18   12   14 1   
    19   19   20 1   
    20   19   28 1   
    21   20   21 1   
    22   20   23 1   
    23   20   29 1   
    24   21   22 2   
    25   21   41 1   
    26   23   24 1   
    27   23   30 1   
    28   23   31 1   
    29   24   25 1   
    30   24   32 1   
    31   24   33 1   
    32   25   26 1   
    33   25   34 1   
    34   25   35 1   
    35   26   27 1   
    36   26   36 1   
    37   26   37 1   
    38   27   38 1   
    39   27   39 1   
    40   27   40 1   
    41   41   42 1   
    42   41   49 1   
    43   42   43 1   
    44   42   45 1   
    45   42   50 1   
    46   43   44 2   
    47   43   53 1   
    48   45   46 1   
    49   45   51 1   
    50   45   52 1   
    51   46   47 1   
    52   46   48 1   
    53   53   54 1   
    54   53   57 1   
    55   54   55 1   
    56   54   58 1   
    57   54   59 1   
    58   55   56 2   
    59   55   60 1   
    60   60   61 1   
    61   60   68 1   
    62   61   62 1   
    63   61   64 1   
    64   61   69 1   
    65   62   63 2   
    66   62   72 1   
    67   64   65 1   
    68   64   70 1   
    69   64   71 1   
    70   65   66 1   
    71   65   67 1   
    72   72   73 1   
    73   72   76 1   
    74   73   74 1   
    75   73   77 1   
    76   73   78 1   
    77   74   75 2   
    78   74   79 1   
    79   79   80 1   
    80   79   86 1   
    81   80   81 1   
    82   80   83 1   
    83   80   87 1   
    84   81   82 2   
    85   81   93 1   
    86   83   84 1   
    87   83   85 1   
    88   83   88 1   
    89   84   90 1   
    90   84   91 1   
    91   84   92 1   
    92   85   89 1   
    93   93   94 1   
    94   93  101 1   
    95   94   95 1   
    96   94   97 1   
    97   94  102 1   
    98   95   96 2   
    99   95  112 1   
   100   97   98 1   
   101   97   99 1   
   102   97  103 1   
   103   98  100 1   
   104   98  104 1   
   105   98  105 1   
   106   99  106 1   
   107   99  107 1   
   108   99  108 1   
   109  100  109 1   
   110  100  110 1   
   111  100  111 1   
   112  112  113 1   
   113  112  119 1   
   114  113  114 1   
   115  113  116 1   
   116  113  120 1   
   117  114  115 2   
   118  114  126 1   
   119  116  117 1   
   120  116  118 1   
   121  116  121 1   
   122  117  123 1   
   123  117  124 1   
   124  117  125 1   
   125  118  122 1   
   126  126  127 1   
   127  126  133 1   
   128  127  128 1   
   129  127  130 1   
   130  127  134 1   
   131  128  129 2   
   132  128  140 1   
   133  130  131 1   
   134  130  132 1   
   135  130  135 1   
   136  131  137 1   
   137  131  138 1   
   138  131  139 1   
   139  132  136 1   
   140  140  141 1   
   141  140  149 1   
   142  141  142 1   
   143  141  144 1   
   144  141  150 1   
   145  142  143 2   
   146  142  162 1   
   147  144  145 1   
   148  144  151 1   
   149  144  152 1   
   150  145  146 1   
   151  145  153 1   
   152  145  154 1   
   153  146  147 1   
   154  146  155 1   
   155  146  156 1   
   156  147  148 1   
   157  147  157 1   
   158  147  158 1   
   159  148  159 1   
   160  148  160 1   
   161  148  161 1   
   162  162  163 1   
   163  162  171 1   
   164  163  164 1   
   165  163  166 1   
   166  163  172 1   
   167  164  165 2   
   168  164  177 1   
   169  166  167 1   
   170  166  173 1   
   171  166  174 1   
   172  167  168 1   
   173  167  175 1   
   174  167  176 1   
   175  168  169 1   
   176  168  170 1   
   177  177  178 1   
   178  177  182 1   
   179  178  179 1   
   180  178  180 1   
   181  178  181 1   
   182  184  185 1   
   183  184  186 1   
   184  187  188 1   
   185  187  189 1   
   186  190  191 1   
   187  190  192 1   
@<TRIPOS>SUBSTRUCTURE
     1 MOL         1 TEMP              0 ****  ****    0 ROOT
