@<TRIPOS>MOLECULE
MOL
  195   189     1     0     0
SMALL
resp


@<TRIPOS>ATOM
      1 C1         -3.0600   -2.7120    3.6200 c3        1 MOL     -0.488057
      2 C2         -2.4880   -2.9070    2.2150 c         1 MOL      0.543818
      3 O1         -1.6900   -2.1170    1.7480 o         1 MOL     -0.421056
      4 H1         -2.4160   -2.0380    4.1840 hc        1 MOL      0.122641
      5 H2         -4.0610   -2.2850    3.5500 hc        1 MOL      0.122641
      6 H3         -3.1110   -3.6740    4.1280 hc        1 MOL      0.122641
      7 N1         -2.7660   -4.0470    1.5520 n         1 MOL     -0.484700
      8 C3         -2.3120   -4.2240    0.1620 c3        1 MOL     -0.153166
      9 C4         -0.8230   -4.2900   -0.0790 c         1 MOL      0.666800
     10 O2         -0.2830   -3.7200   -1.0640 o         1 MOL     -0.574086
     11 C5         -3.1070   -3.3200   -0.8040 c3        1 MOL      0.283386
     12 C6         -4.6590   -3.4270   -0.6850 c         1 MOL      0.434973
     13 O3         -5.2110   -4.2590   -1.3790 o         1 MOL     -0.663366
     14 O4         -5.2740   -2.8430    0.2400 o         1 MOL     -0.663366
     15 H4         -3.4010   -4.7340    1.9330 hn        1 MOL      0.254083
     16 H5         -2.5270   -5.2550   -0.1410 h1        1 MOL      0.102295
     17 H6         -2.7890   -3.5910   -1.8100 hc        1 MOL     -0.026527
     18 H7         -2.7700   -2.2880   -0.7540 hc        1 MOL     -0.026527
     19 N2         -0.0760   -4.9720    0.7470 n         1 MOL     -0.578151
     20 C7          1.3500   -4.8210    1.0080 c3        1 MOL     -0.050501
     21 C8          2.1290   -5.8550    0.1770 c         1 MOL      0.679228
     22 O5          1.6140   -6.8930   -0.1040 o         1 MOL     -0.567173
     23 C9          1.7030   -4.8760    2.5040 c3        1 MOL      0.009293
     24 C10         1.6620   -6.3150    3.1300 c3        1 MOL      0.119687
     25 C11         0.7190   -3.9280    3.2470 c3        1 MOL     -0.026955
     26 C12         2.9180   -7.1190    3.0360 c3        1 MOL     -0.031824
     27 H8         -0.6090   -5.4390    1.4820 hn        1 MOL      0.332001
     28 H9          1.5620   -3.8300    0.5900 h1        1 MOL      0.109582
     29 H10         2.6880   -4.4130    2.5390 hc        1 MOL      0.032950
     30 H11         0.8490   -6.8690    2.6620 hc        1 MOL     -0.051809
     31 H12         1.4000   -6.1830    4.1780 hc        1 MOL     -0.051809
     32 H13        -0.2060   -4.5140    3.2910 hc        1 MOL      0.021749
     33 H14         1.0350   -3.6990    4.2670 hc        1 MOL      0.021749
     34 H15         0.6150   -3.0490    2.6170 hc        1 MOL      0.021749
     35 H16         2.9820   -7.5380    2.0340 hc        1 MOL      0.000830
     36 H17         3.6900   -6.4330    3.3950 hc        1 MOL      0.000830
     37 H18         2.9330   -7.8760    3.8260 hc        1 MOL      0.000830
     38 N3          3.4190   -5.7420   -0.2090 n         1 MOL     -0.630606
     39 C13         4.2860   -4.5440   -0.1380 c3        1 MOL      0.156914
     40 C14         3.8320   -3.4670   -1.0720 c         1 MOL      0.390929
     41 O6          4.0740   -2.2800   -0.8570 o         1 MOL     -0.559200
     42 C15         5.7710   -4.9050   -0.3890 c3        1 MOL     -0.220127
     43 C16         6.1090   -5.6590   -1.6800 c         1 MOL      0.723552
     44 O7          5.2560   -6.1940   -2.4610 o         1 MOL     -0.706889
     45 O8          7.3250   -5.7920   -1.9540 o         1 MOL     -0.706889
     46 H19         3.9000   -6.5600   -0.5650 hn        1 MOL      0.316011
     47 H20         4.3050   -4.1290    0.8760 h1        1 MOL      0.028457
     48 H21         6.0910   -5.4220    0.5110 hc        1 MOL      0.035747
     49 H22         6.2850   -3.9530   -0.4040 hc        1 MOL      0.035747
     50 N4          3.2910   -3.8850   -2.2330 n         1 MOL     -0.052912
     51 C17         2.9000   -2.9600   -3.3140 c3        1 MOL     -0.281072
     52 C18         4.0260   -2.0240   -3.8240 c         1 MOL      0.548255
     53 O9          4.8110   -2.4750   -4.6750 o         1 MOL     -0.554854
     54 H23         3.1660   -4.8780   -2.3770 hn        1 MOL      0.222654
     55 H24         2.0530   -2.3140   -3.0790 h1        1 MOL      0.114318
     56 H25         2.5220   -3.5990   -4.1100 h1        1 MOL      0.114318
     57 N5          4.0370   -0.7580   -3.4030 n         1 MOL     -0.413703
     58 C19         5.1730    0.1380   -3.7360 c3        1 MOL      0.078191
     59 C20         6.4490   -0.0100   -2.8340 c         1 MOL      0.374566
     60 O10         7.4710    0.5930   -3.0120 o         1 MOL     -0.556078
     61 C21         4.7470    1.6600   -3.8020 c3        1 MOL     -0.232011
     62 C22         3.9280    2.2100   -2.6600 c         1 MOL      0.717003
     63 O11         3.6910    1.5590   -1.6120 o         1 MOL     -0.670926
     64 O12         3.2860    3.3110   -2.8120 o         1 MOL     -0.670926
     65 H26         3.4260   -0.5480   -2.6280 hn        1 MOL      0.299815
     66 H27         5.4690   -0.2070   -4.7280 h1        1 MOL      0.098012
     67 H28         4.1960    1.7510   -4.7400 hc        1 MOL      0.043784
     68 H29         5.6260    2.2880   -3.9840 hc        1 MOL      0.043784
     69 N6          6.4260   -0.8430   -1.7920 n         1 MOL     -0.079442
     70 C23         7.3110   -0.9570   -0.6550 c3        1 MOL     -0.259262
     71 C24         7.3870    0.3050    0.1960 c         1 MOL      0.782698
     72 O13         7.9930    0.2340    1.2100 o         1 MOL     -0.612732
     73 H30         5.4920   -1.2280   -1.7320 hn        1 MOL      0.139852
     74 H31         8.3190   -1.1430   -1.0340 h1        1 MOL      0.122297
     75 H32         7.0140   -1.8070   -0.0400 h1        1 MOL      0.122297
     76 N7          6.9610    1.5280   -0.2510 n         1 MOL     -0.646496
     77 C25         7.1580    2.8830    0.3030 c3        1 MOL      0.417027
     78 C26         6.7310    3.1780    1.7320 c         1 MOL      0.156583
     79 O14         7.1740    4.1800    2.3040 o         1 MOL     -0.475703
     80 C27         8.5730    3.3140   -0.0440 c3        1 MOL     -0.145861
     81 C28         8.9010    3.2250   -1.5430 c3        1 MOL     -0.195100
     82 C29        10.0680    4.1660   -1.8840 c         1 MOL      0.648706
     83 N8         10.5040    4.0400   -3.1140 n         1 MOL     -0.802343
     84 O15        10.6700    4.9850   -1.1770 o         1 MOL     -0.563946
     85 H33         6.5530    1.3910   -1.1660 hn        1 MOL      0.258348
     86 H34         6.5340    3.5600   -0.2870 h1        1 MOL      0.053390
     87 H35         9.3000    2.6330    0.3940 hc        1 MOL      0.056748
     88 H36         8.7530    4.3460    0.2670 hc        1 MOL      0.056748
     89 H37         8.0270    3.4650   -2.1430 hc        1 MOL      0.081370
     90 H38         9.1150    2.2040   -1.8580 hc        1 MOL      0.081370
     91 H39        10.0320    3.3240   -3.6450 hn        1 MOL      0.353907
     92 H40        11.2230    4.6530   -3.4650 hn        1 MOL      0.353907
     93 N9          5.8160    2.3360    2.2300 n         1 MOL     -0.126893
     94 C30         5.2850    2.5100    3.6410 c3        1 MOL     -0.028109
     95 C31         3.7620    2.4090    3.7510 c         1 MOL      0.412335
     96 O16         3.3460    2.4080    4.8910 o         1 MOL     -0.525078
     97 C32         6.1040    1.5290    4.5140 c3        1 MOL      0.317300
     98 C33         5.9260    0.0600    4.1640 c3        1 MOL     -0.344484
     99 C34         7.5960    1.8350    4.4970 c3        1 MOL     -0.344484
    100 H41         5.4950    1.5830    1.6400 hn        1 MOL      0.165295
    101 H42         5.5140    3.5460    3.8960 h1        1 MOL      0.096640
    102 H43         5.7900    1.7090    5.5410 hc        1 MOL     -0.046468
    103 H44         6.5260   -0.5940    4.7960 hc        1 MOL      0.077020
    104 H45         4.8980   -0.2880    4.2690 hc        1 MOL      0.077020
    105 H46         6.2100   -0.2230    3.1480 hc        1 MOL      0.077020
    106 H47         7.9750    1.6660    3.4930 hc        1 MOL      0.077020
    107 H48         7.7570    2.8650    4.7920 hc        1 MOL      0.077020
    108 H49         8.1950    1.1140    5.0510 hc        1 MOL      0.077020
    109 N10         3.0510    2.3180    2.6550 n         1 MOL     -0.298034
    110 C35         1.6280    2.1240    2.5850 c3        1 MOL      0.291591
    111 C36         0.9470    3.1130    1.5700 c         1 MOL      0.423685
    112 O17         1.5730    3.7960    0.7900 o         1 MOL     -0.478441
    113 C37         1.3800    0.6430    2.2330 c3        1 MOL     -0.133890
    114 C38         1.8310   -0.3640    3.2990 c         1 MOL      0.535945
    115 N11         2.7730   -1.2510    2.8890 n         1 MOL     -0.674266
    116 O18         1.4350   -0.4690    4.4810 o         1 MOL     -0.543157
    117 H50         3.4830    2.5580    1.7790 hn        1 MOL      0.170237
    118 H51         1.2360    2.3440    3.5780 h1        1 MOL      0.006409
    119 H52         1.9310    0.3690    1.3310 hc        1 MOL      0.054748
    120 H53         0.3490    0.3320    2.0760 hc        1 MOL      0.054748
    121 H54         3.3210   -1.0110    2.0800 hn        1 MOL      0.316640
    122 H55         2.9280   -2.1060    3.4050 hn        1 MOL      0.316640
    123 N12        -0.3620    3.0650    1.4560 n         1 MOL     -0.615144
    124 C39        -1.1790    3.6150    0.3410 c3        1 MOL      0.496384
    125 C40        -2.6010    4.0370    0.8150 c         1 MOL      0.580188
    126 O19        -2.9820    3.6050    1.8850 o         1 MOL     -0.610705
    127 C41        -1.1580    2.5740   -0.7900 c3        1 MOL     -0.291423
    128 C42        -2.0410    2.9490   -2.0040 ca        1 MOL      0.002234
    129 C43        -3.0290    2.1280   -2.5210 ca        1 MOL     -0.077791
    130 C44        -1.7380    4.1860   -2.6750 ca        1 MOL     -0.077791
    131 C45        -3.7900    2.5200   -3.6530 ca        1 MOL     -0.337137
    132 C46        -2.5120    4.5820   -3.8040 ca        1 MOL     -0.337137
    133 C47        -3.5870    3.7720   -4.2080 ca        1 MOL      0.431692
    134 O20        -4.2460    4.0880   -5.3340 oh        1 MOL     -0.524535
    135 H56        -0.8430    2.5090    2.1470 hn        1 MOL      0.288768
    136 H57        -0.6710    4.5370    0.0490 h1        1 MOL     -0.005602
    137 H58        -1.4860    1.6710   -0.2720 hc        1 MOL      0.118968
    138 H59        -0.1300    2.4770   -1.1330 hc        1 MOL      0.118968
    139 H60        -3.1190    1.1200   -2.1400 ha        1 MOL      0.127349
    140 H61        -0.9830    4.8310   -2.2380 ha        1 MOL      0.127349
    141 H62        -4.5360    1.9570   -4.1870 ha        1 MOL      0.168564
    142 H63        -2.2340    5.4450   -4.3860 ha        1 MOL      0.168564
    143 H64        -4.8000    3.3620   -5.6200 ho        1 MOL      0.362283
    144 N13        -3.3610    4.7110    0.0040 n         1 MOL     -0.906987
    145 C48        -4.8000    4.8720    0.2410 c3        1 MOL      0.866263
    146 C49        -5.6190    4.4080   -0.9680 c         1 MOL      0.112664
    147 O21        -6.0370    5.2640   -1.7920 o         1 MOL     -0.514238
    148 C50        -5.0120    6.3510    0.6630 c3        1 MOL     -0.155822
    149 C51        -6.4450    6.8320    0.9230 c3        1 MOL     -0.285637
    150 C52        -6.3420    8.2800    1.4560 c         1 MOL      0.759964
    151 O22        -6.2090    8.4390    2.6860 o         1 MOL     -0.665829
    152 O23        -6.5880    9.2500    0.7420 o         1 MOL     -0.665829
    153 H65        -3.0240    4.8820   -0.9370 hn        1 MOL      0.343120
    154 H66        -5.1060    4.3320    1.1400 h1        1 MOL     -0.005663
    155 H67        -4.5590    7.0310   -0.0540 hc        1 MOL      0.033344
    156 H68        -4.4740    6.4210    1.6050 hc        1 MOL      0.033344
    157 H69        -6.8970    6.1540    1.6480 hc        1 MOL      0.063001
    158 H70        -6.9940    6.9370   -0.0180 hc        1 MOL      0.063001
    159 N14        -5.8810    3.1310   -1.2190 n         1 MOL     -0.076737
    160 C53        -5.7150    1.9650   -0.3310 c3        1 MOL     -0.261314
    161 C54        -6.5380    2.1810    1.0450 c         1 MOL      0.377769
    162 O24        -7.2770    3.1570    1.1700 o         1 MOL     -0.500935
    163 C55        -6.0030    0.7410   -1.1820 c3        1 MOL     -0.017405
    164 C56        -7.4860    0.4520   -1.1820 c3        1 MOL     -0.690478
    165 C57        -7.8770   -0.6440   -2.1150 c         1 MOL      0.843341
    166 O25        -8.2430   -0.3270   -3.2920 o         1 MOL     -0.679626
    167 O26        -7.8950   -1.8100   -1.7430 o         1 MOL     -0.679626
    168 H71        -6.4850    3.0530   -2.0270 hn        1 MOL      0.242053
    169 H72        -4.6840    1.9910    0.0250 h1        1 MOL      0.013042
    170 H73        -5.6050   -0.1750   -0.7520 hc        1 MOL      0.077435
    171 H74        -5.5880    0.8140   -2.1810 hc        1 MOL      0.077435
    172 H75        -8.0530    1.3610   -1.3570 hc        1 MOL      0.196311
    173 H76        -7.8110    0.1610   -0.1820 hc        1 MOL      0.196311
    174 N15        -6.0720    1.4420    2.0170 n         1 MOL     -0.103023
    175 C58        -6.5250    1.6060    3.3900 c3        1 MOL     -0.043215
    176 H77        -5.8660    2.3010    3.9090 h1        1 MOL      0.041138
    177 H78        -7.5420    1.9990    3.3940 h1        1 MOL      0.041138
    178 H79        -6.5060    0.6410    3.8970 h1        1 MOL      0.041138
    179 H80        -5.4290    0.6950    1.7730 hn        1 MOL      0.256756
    180 Ca1        -7.7510   -3.8830   -0.2570 Ca        1 MOL      1.700770
    181 O27        -8.9300   -6.2760    0.3250 oh        1 MOL     -0.856335
    182 O28        -9.2540   -3.8330    2.1530 oh        1 MOL     -0.856335
    183 H81        -9.6050   -6.1550    0.9890 ho        1 MOL      0.382472
    184 H82        -9.4630   -4.5780    2.7200 ho        1 MOL      0.382472
    185 H83        -9.2540   -6.9680   -0.2380 ho        1 MOL      0.382472
    186 H84        -9.6640   -3.0800    2.5830 ho        1 MOL      0.382472
    187 O29        -7.1660   -1.5730    1.5900 oh        1 MOL     -0.856335
    188 H85        -7.2100   -1.7770    2.5210 ho        1 MOL      0.382472
    189 H86        -6.3090   -1.9140    1.3080 ho        1 MOL      0.382472
    190 O30        -8.4400   -4.6660   -2.7950 oh        1 MOL     -0.856335
    191 H87        -8.5240   -5.4700   -3.3140 ho        1 MOL      0.382472
    192 H88        -8.7250   -3.9650   -3.3790 ho        1 MOL      0.382472
    193 O31       -10.3870   -3.4930   -0.8770 oh        1 MOL     -0.856335
    194 H89       -10.7260   -4.1500   -1.4870 ho        1 MOL      0.382472
    195 H90       -11.1500   -3.2140   -0.3690 ho        1 MOL      0.382472
@<TRIPOS>BOND
     1    1    2 1   
     2    1    4 1   
     3    1    5 1   
     4    1    6 1   
     5    2    3 2   
     6    2    7 1   
     7    7    8 1   
     8    7   15 1   
     9    8    9 1   
    10    8   11 1   
    11    8   16 1   
    12    9   10 2   
    13    9   19 1   
    14   11   12 1   
    15   11   17 1   
    16   11   18 1   
    17   12   13 1   
    18   12   14 1   
    19   19   20 1   
    20   19   27 1   
    21   20   21 1   
    22   20   23 1   
    23   20   28 1   
    24   21   22 2   
    25   21   38 1   
    26   23   24 1   
    27   23   25 1   
    28   23   29 1   
    29   24   26 1   
    30   24   30 1   
    31   24   31 1   
    32   25   32 1   
    33   25   33 1   
    34   25   34 1   
    35   26   35 1   
    36   26   36 1   
    37   26   37 1   
    38   38   39 1   
    39   38   46 1   
    40   39   40 1   
    41   39   42 1   
    42   39   47 1   
    43   40   41 2   
    44   40   50 1   
    45   42   43 1   
    46   42   48 1   
    47   42   49 1   
    48   43   44 1   
    49   43   45 1   
    50   50   51 1   
    51   50   54 1   
    52   51   52 1   
    53   51   55 1   
    54   51   56 1   
    55   52   53 2   
    56   52   57 1   
    57   57   58 1   
    58   57   65 1   
    59   58   59 1   
    60   58   61 1   
    61   58   66 1   
    62   59   60 2   
    63   59   69 1   
    64   61   62 1   
    65   61   67 1   
    66   61   68 1   
    67   62   63 1   
    68   62   64 1   
    69   69   70 1   
    70   69   73 1   
    71   70   71 1   
    72   70   74 1   
    73   70   75 1   
    74   71   72 2   
    75   71   76 1   
    76   76   77 1   
    77   76   85 1   
    78   77   78 1   
    79   77   80 1   
    80   77   86 1   
    81   78   79 2   
    82   78   93 1   
    83   80   81 1   
    84   80   87 1   
    85   80   88 1   
    86   81   82 1   
    87   81   89 1   
    88   81   90 1   
    89   82   83 1   
    90   82   84 2   
    91   83   91 1   
    92   83   92 1   
    93   93   94 1   
    94   93  100 1   
    95   94   95 1   
    96   94   97 1   
    97   94  101 1   
    98   95   96 2   
    99   95  109 1   
   100   97   98 1   
   101   97   99 1   
   102   97  102 1   
   103   98  103 1   
   104   98  104 1   
   105   98  105 1   
   106   99  106 1   
   107   99  107 1   
   108   99  108 1   
   109  109  110 1   
   110  109  117 1   
   111  110  111 1   
   112  110  113 1   
   113  110  118 1   
   114  111  112 2   
   115  111  123 1   
   116  113  114 1   
   117  113  119 1   
   118  113  120 1   
   119  114  115 1   
   120  114  116 2   
   121  115  121 1   
   122  115  122 1   
   123  123  124 1   
   124  123  135 1   
   125  124  125 1   
   126  124  127 1   
   127  124  136 1   
   128  125  126 2   
   129  125  144 1   
   130  127  128 1   
   131  127  137 1   
   132  127  138 1   
   133  128  129 ar  
   134  128  130 ar  
   135  129  131 ar  
   136  129  139 1   
   137  130  132 ar  
   138  130  140 1   
   139  131  133 ar  
   140  131  141 1   
   141  132  133 ar  
   142  132  142 1   
   143  133  134 1   
   144  134  143 1   
   145  144  145 1   
   146  144  153 1   
   147  145  146 1   
   148  145  148 1   
   149  145  154 1   
   150  146  147 2   
   151  146  159 1   
   152  148  149 1   
   153  148  155 1   
   154  148  156 1   
   155  149  150 1   
   156  149  157 1   
   157  149  158 1   
   158  150  151 1   
   159  150  152 1   
   160  159  160 1   
   161  159  168 1   
   162  160  161 1   
   163  160  163 1   
   164  160  169 1   
   165  161  162 2   
   166  161  174 1   
   167  163  164 1   
   168  163  170 1   
   169  163  171 1   
   170  164  165 1   
   171  164  172 1   
   172  164  173 1   
   173  165  166 1   
   174  165  167 1   
   175  174  175 1   
   176  174  179 1   
   177  175  176 1   
   178  175  177 1   
   179  175  178 1   
   180  181  183 1   
   181  181  185 1   
   182  182  184 1   
   183  182  186 1   
   184  187  188 1   
   185  187  189 1   
   186  190  191 1   
   187  190  192 1   
   188  193  194 1   
   189  193  195 1   
@<TRIPOS>SUBSTRUCTURE
     1 MOL         1 TEMP              0 ****  ****    0 ROOT
