@<TRIPOS>MOLECULE
MOL
  182   178     1     0     0
SMALL
resp


@<TRIPOS>ATOM
      1 C1          2.6540   -6.5840    4.8930 c3        1 MOL     -0.406630
      2 C2          2.3630   -5.7520    3.6290 c         1 MOL      0.674976
      3 O1          1.6550   -6.1110    2.7160 o         1 MOL     -0.630762
      4 H1          3.3510   -7.3860    4.6470 hc        1 MOL      0.129149
      5 H2          3.0930   -5.9430    5.6580 hc        1 MOL      0.129149
      6 H3          1.7250   -7.0140    5.2680 hc        1 MOL      0.129149
      7 N1          3.0710   -4.6330    3.4190 n         1 MOL     -0.552702
      8 C3          2.9130   -3.7650    2.2620 c3        1 MOL      0.048222
      9 C4          3.4880   -4.4820    0.9970 c         1 MOL      0.732330
     10 O2          4.5290   -5.0830    1.0300 o         1 MOL     -0.555724
     11 C5          3.7740   -2.5160    2.5910 c3        1 MOL     -0.100528
     12 C6          3.5920   -1.4270    1.5310 c         1 MOL      0.515065
     13 O3          3.8530   -0.2400    1.7580 o         1 MOL     -0.638248
     14 O4          3.1290   -1.7140    0.4140 o         1 MOL     -0.638248
     15 H4          3.6310   -4.3470    4.2070 hn        1 MOL      0.313303
     16 H5          1.8690   -3.4570    2.2150 h1        1 MOL      0.055469
     17 H6          4.8070   -2.8670    2.5210 hc        1 MOL      0.063833
     18 H7          3.4380   -2.1520    3.5650 hc        1 MOL      0.063833
     19 N2          2.7010   -4.4010   -0.1210 n         1 MOL     -0.389190
     20 C7          2.8930   -5.0030   -1.4580 c3        1 MOL      0.131403
     21 C8          4.1140   -4.3870   -2.2900 c         1 MOL      0.515144
     22 O5          4.4000   -4.9190   -3.3610 o         1 MOL     -0.547833
     23 C9          1.6150   -5.1970   -2.2280 c3        1 MOL     -0.222167
     24 C10         0.5070   -5.8540   -1.3890 c3        1 MOL      0.032646
     25 C11         0.8090   -7.2130   -0.7160 c3        1 MOL     -0.004352
     26 C12        -0.3060   -7.6420    0.2510 c3        1 MOL     -0.084703
     27 N3         -0.6620   -6.6460    1.2550 n4        1 MOL     -0.186581
     28 H8          1.8650   -3.8360   -0.0280 hn        1 MOL      0.147128
     29 H9          3.3230   -5.9950   -1.3040 h1        1 MOL      0.018825
     30 H10         1.8230   -5.8080   -3.1070 hc        1 MOL      0.095011
     31 H11         1.2250   -4.2690   -2.6420 hc        1 MOL      0.095011
     32 H12        -0.3320   -6.1040   -2.0500 hc        1 MOL     -0.006209
     33 H13        -0.0750   -5.2590   -0.6830 hc        1 MOL     -0.006209
     34 H14         1.7240   -7.1250   -0.1270 hc        1 MOL      0.063355
     35 H15         0.9790   -8.0280   -1.4230 hc        1 MOL      0.063355
     36 H16         0.0460   -8.5540    0.7360 hx        1 MOL      0.089575
     37 H17        -1.1810   -7.8260   -0.3790 hx        1 MOL      0.089575
     38 H18        -1.0520   -5.8230    0.8150 hn        1 MOL      0.274023
     39 H19        -1.4550   -6.9040    1.8150 hn        1 MOL      0.274023
     40 H20         0.1500   -6.3330    1.7620 hn        1 MOL      0.274023
     41 N4          4.7380   -3.3450   -1.7820 n         1 MOL     -0.345450
     42 C13         6.0000   -2.7610   -2.3890 c3        1 MOL     -0.006750
     43 C14         6.9370   -2.0890   -1.3670 c         1 MOL      0.405268
     44 O6          8.0710   -1.8160   -1.6610 o         1 MOL     -0.484108
     45 C15         5.6940   -1.7020   -3.5060 c3        1 MOL     -0.262830
     46 C16         4.6230   -0.6170   -3.1460 c         1 MOL      0.769346
     47 O7          4.4460   -0.3870   -1.9290 o         1 MOL     -0.674603
     48 O8          4.1290   -0.0170   -4.1400 o         1 MOL     -0.674603
     49 H21         4.3420   -2.9380   -0.9550 hn        1 MOL      0.214102
     50 H22         6.6130   -3.5980   -2.7280 h1        1 MOL      0.118814
     51 H23         5.2790   -2.2250   -4.3690 hc        1 MOL      0.106793
     52 H24         6.5950   -1.1950   -3.8310 hc        1 MOL      0.106793
     53 N5          6.3130   -1.7520   -0.2520 n         1 MOL     -0.047266
     54 C17         6.9460   -0.8460    0.7170 c3        1 MOL     -0.318526
     55 C18         7.0900    0.6700    0.4320 c         1 MOL      0.608317
     56 O9          7.6930    1.3510    1.1790 o         1 MOL     -0.542554
     57 H25         5.3110   -1.8030   -0.2400 hn        1 MOL     -0.040738
     58 H26         7.9480   -1.1660    1.0090 h1        1 MOL      0.135760
     59 H27         6.4080   -0.9270    1.6670 h1        1 MOL      0.135760
     60 N6          6.4830    1.1240   -0.6860 n         1 MOL     -0.031662
     61 C19         6.5400    2.4790   -1.1170 c3        1 MOL     -0.435982
     62 C20         5.3270    3.3850   -0.6760 c         1 MOL      0.936733
     63 O10         4.2510    2.7580   -0.4600 o         1 MOL     -0.761396
     64 C21         6.6850    2.5870   -2.6650 c3        1 MOL     -0.190869
     65 C22         7.8910    1.7960   -3.1930 c         1 MOL      0.608300
     66 N7          9.0350    1.8740   -2.4990 n         1 MOL     -0.731198
     67 O11         7.7230    1.0760   -4.1270 o         1 MOL     -0.484972
     68 H28         6.0910    0.4500   -1.3250 hn        1 MOL      0.130620
     69 H29         7.4150    2.9400   -0.6740 h1        1 MOL      0.060196
     70 H30         6.7920    3.6350   -2.9440 hc        1 MOL      0.064204
     71 H31         5.7630    2.1420   -3.0200 hc        1 MOL      0.064204
     72 H32         8.9900    2.5020   -1.7100 hn        1 MOL      0.361244
     73 H33         9.8980    1.6900   -2.9810 hn        1 MOL      0.361244
     74 N8          5.4800    4.6820   -0.6370 n         1 MOL     -0.506304
     75 C23         4.3570    5.6430   -0.4500 c3        1 MOL     -0.120624
     76 C24         3.4120    5.2420    0.6520 c         1 MOL      0.604163
     77 O12         3.8300    4.9030    1.7760 o         1 MOL     -0.489803
     78 H34         6.3830    5.0940   -0.8540 hn        1 MOL      0.349571
     79 H35         3.8970    5.7550   -1.4270 h1        1 MOL      0.100831
     80 H36         4.7440    6.5960   -0.0870 h1        1 MOL      0.100831
     81 N9          2.1320    5.0830    0.3000 n         1 MOL     -0.605792
     82 C25         1.0830    4.7310    1.3440 c3        1 MOL      0.113375
     83 C26         1.1870    3.2920    1.8570 c         1 MOL      0.395333
     84 O13         2.0560    2.5450    1.3540 o         1 MOL     -0.343038
     85 C27        -0.3830    4.8990    0.8000 c3        1 MOL     -0.283645
     86 C28        -0.6900    6.3300    0.5020 ca        1 MOL      0.112497
     87 C29        -0.7530    7.2960    1.5400 ca        1 MOL     -0.148491
     88 C30        -0.9980    6.7410   -0.7560 ca        1 MOL     -0.148491
     89 C31        -1.1170    8.6700    1.3780 ca        1 MOL     -0.298518
     90 C32        -1.2650    8.1060   -0.9720 ca        1 MOL     -0.298518
     91 C33        -1.2980    9.0820    0.0690 ca        1 MOL      0.395251
     92 O14        -1.5580   10.3870   -0.2680 oh        1 MOL     -0.517023
     93 H37         1.8340    5.0320   -0.6650 hn        1 MOL      0.344313
     94 H38         1.1490    5.3470    2.2490 h1        1 MOL      0.086549
     95 H39        -1.1820    4.4090    1.3590 hc        1 MOL      0.099090
     96 H40        -0.4370    4.4160   -0.1710 hc        1 MOL      0.099090
     97 H41        -0.5040    6.9600    2.5310 ha        1 MOL      0.120334
     98 H42        -1.1640    6.0030   -1.5360 ha        1 MOL      0.120334
     99 H43        -1.2490    9.2910    2.2580 ha        1 MOL      0.170470
    100 H44        -1.5480    8.3800   -1.9710 ha        1 MOL      0.170470
    101 H45        -1.4330   11.0150    0.4550 ho        1 MOL      0.391723
    102 N10         0.2960    2.8970    2.8410 n         1 MOL     -0.428855
    103 C34         0.0600    1.4830    3.1770 c3        1 MOL      0.070204
    104 C35        -0.1720    0.5270    2.0040 c         1 MOL      0.189272
    105 O15         0.8200    0.1050    1.3610 o         1 MOL     -0.323635
    106 C36         1.1890    0.9290    4.0890 c3        1 MOL      0.363857
    107 C37         0.5900   -0.2150    4.9860 c3        1 MOL     -0.374861
    108 C38         1.8740    1.9370    4.9760 c3        1 MOL     -0.057460
    109 C39        -0.3560    0.2540    6.1580 c3        1 MOL     -0.158900
    110 H46        -0.2940    3.6090    3.2400 hn        1 MOL      0.283516
    111 H47        -0.8510    1.4250    3.7800 h1        1 MOL      0.063121
    112 H48         2.0120    0.5070    3.5120 hc        1 MOL     -0.050439
    113 H49         1.4010   -0.7600    5.4660 hc        1 MOL      0.113137
    114 H50         0.1230   -0.9250    4.3110 hc        1 MOL      0.113137
    115 H51         1.1600    2.6470    5.3950 hc        1 MOL      0.010080
    116 H52         2.6030    1.5560    5.6900 hc        1 MOL      0.010080
    117 H53         2.4080    2.5900    4.2810 hc        1 MOL      0.010080
    118 H54        -1.0680    1.0190    5.8540 hc        1 MOL      0.050776
    119 H55        -0.8880   -0.5740    6.6260 hc        1 MOL      0.050776
    120 H56         0.2920    0.6890    6.9260 hc        1 MOL      0.050776
    121 N11        -1.4540    0.1340    1.6190 n         1 MOL     -0.469015
    122 C40        -1.7820   -0.9100    0.7070 c3        1 MOL      0.143044
    123 C41        -3.2610   -1.1080    0.3170 c         1 MOL      0.492562
    124 O16        -3.6520   -2.0820   -0.2910 o         1 MOL     -0.490669
    125 C42        -1.2370   -2.2700    1.1830 c3        1 MOL      0.125730
    126 O17        -1.0440   -2.9800    0.0400 oh        1 MOL     -0.499177
    127 H57        -2.1380    0.4870    2.2670 hn        1 MOL      0.275385
    128 H58        -1.3010   -0.6360   -0.2280 h1        1 MOL      0.053949
    129 H59        -1.8660   -2.8140    1.8840 h1        1 MOL      0.011816
    130 H60        -0.2100   -2.2520    1.5560 h1        1 MOL      0.011816
    131 H61        -1.8170   -2.7840   -0.5040 ho        1 MOL      0.316069
    132 N12        -4.1000   -0.1260    0.6690 n         1 MOL     -0.508915
    133 C43        -5.3830    0.0790    0.0780 c3        1 MOL      0.089640
    134 C44        -5.3190    0.3640   -1.4440 c         1 MOL      0.678343
    135 O18        -4.2780    0.7340   -1.8750 o         1 MOL     -0.554928
    136 C45        -6.1640    1.2200    0.7600 c3        1 MOL     -0.105612
    137 H62        -3.7890    0.6730    1.1990 hn        1 MOL      0.281465
    138 H63        -5.8970   -0.8740    0.2510 h1        1 MOL      0.116294
    139 H64        -5.6950    2.1760    0.5330 hc        1 MOL      0.040489
    140 H65        -7.2030    1.1520    0.4460 hc        1 MOL      0.040489
    141 H66        -6.1860    1.0870    1.8460 hc        1 MOL      0.040489
    142 N13        -6.4900    0.3290   -2.1590 n         1 MOL     -0.768292
    143 C46        -7.7360   -0.3310   -1.7580 c3        1 MOL      0.521056
    144 C47        -8.9340    0.3610   -2.4200 c         1 MOL      0.423642
    145 O19        -8.7450    1.0040   -3.4500 o         1 MOL     -0.535169
    146 C48        -7.6700   -1.7880   -2.3200 c3        1 MOL     -0.324968
    147 H67        -6.5160    0.6360   -3.1160 hn        1 MOL      0.378591
    148 H68        -7.9950   -0.4820   -0.7160 h1        1 MOL     -0.096747
    149 H69        -8.6790   -2.1820   -2.4040 hc        1 MOL      0.088881
    150 H70        -7.2300   -1.7280   -3.3160 hc        1 MOL      0.088881
    151 H71        -7.0920   -2.4010   -1.6410 hc        1 MOL      0.088881
    152 N14       -10.1680    0.2460   -1.9010 n         1 MOL     -0.522275
    153 C49       -10.5480   -0.4110   -0.6510 c3        1 MOL      0.029732
    154 C50       -10.0570    0.2030    0.6690 c         1 MOL      0.400835
    155 O20        -9.3810   -0.4780    1.4560 o         1 MOL     -0.508757
    156 C51       -12.1180   -0.6720   -0.4910 c3        1 MOL     -0.086657
    157 C52       -12.5220   -1.8420   -1.4000 c3        1 MOL     -0.180100
    158 C53       -13.9780   -2.2740   -1.1950 c         1 MOL      0.736769
    159 O21       -14.2310   -3.3660   -0.6980 o         1 MOL     -0.697954
    160 O22       -14.8630   -1.5640   -1.6800 o         1 MOL     -0.697954
    161 H72       -10.8670    0.7100   -2.4660 hn        1 MOL      0.359981
    162 H73       -10.1490   -1.4160   -0.5450 h1        1 MOL      0.092294
    163 H74       -12.6530    0.2770   -0.5630 hc        1 MOL      0.054008
    164 H75       -12.3920   -1.0820    0.4880 hc        1 MOL      0.054008
    165 H76       -11.8460   -2.6740   -1.2910 hc        1 MOL      0.031322
    166 H77       -12.3780   -1.4710   -2.4190 hc        1 MOL      0.031322
    167 N15       -10.1910    1.5080    0.7750 n         1 MOL     -0.304705
    168 C54        -9.6270    2.3620    1.8530 c3        1 MOL     -0.145675
    169 H78       -10.3610    3.1170    2.1390 h1        1 MOL      0.090080
    170 H79        -9.3860    1.7450    2.7190 h1        1 MOL      0.090080
    171 H80        -8.7230    2.8530    1.4940 h1        1 MOL      0.090080
    172 H81       -10.9070    1.9710    0.2470 hn        1 MOL      0.278914
    173 Ca1         2.4770    0.6070   -0.6090 Ca        1 MOL      1.736520
    174 O23         0.1620    1.9390   -1.1940 oh        1 MOL     -0.837413
    175 H82        -0.7450    1.7790   -0.9460 ho        1 MOL      0.404338
    176 H83         0.1110    2.6310   -1.8480 ho        1 MOL      0.404338
    177 O24         0.8710   -1.2570   -1.5490 oh        1 MOL     -0.837413
    178 H84         0.4970   -1.8600   -0.9100 ho        1 MOL      0.404338
    179 H85         0.1960   -1.1490   -2.2170 ho        1 MOL      0.404338
    180 O25         2.2730    1.4330   -3.0990 oh        1 MOL     -0.837413
    181 H86         2.3430    2.2930   -3.5140 ho        1 MOL      0.404338
    182 H87         2.9220    0.8890   -3.5420 ho        1 MOL      0.404338
@<TRIPOS>BOND
     1    1    2 1   
     2    1    4 1   
     3    1    5 1   
     4    1    6 1   
     5    2    3 2   
     6    2    7 1   
     7    7    8 1   
     8    7   15 1   
     9    8    9 1   
    10    8   11 1   
    11    8   16 1   
    12    9   10 2   
    13    9   19 1   
    14   11   12 1   
    15   11   17 1   
    16   11   18 1   
    17   12   13 1   
    18   12   14 1   
    19   19   20 1   
    20   19   28 1   
    21   20   21 1   
    22   20   23 1   
    23   20   29 1   
    24   21   22 2   
    25   21   41 1   
    26   23   24 1   
    27   23   30 1   
    28   23   31 1   
    29   24   25 1   
    30   24   32 1   
    31   24   33 1   
    32   25   26 1   
    33   25   34 1   
    34   25   35 1   
    35   26   27 1   
    36   26   36 1   
    37   26   37 1   
    38   27   38 1   
    39   27   39 1   
    40   27   40 1   
    41   41   42 1   
    42   41   49 1   
    43   42   43 1   
    44   42   45 1   
    45   42   50 1   
    46   43   44 2   
    47   43   53 1   
    48   45   46 1   
    49   45   51 1   
    50   45   52 1   
    51   46   47 1   
    52   46   48 1   
    53   53   54 1   
    54   53   57 1   
    55   54   55 1   
    56   54   58 1   
    57   54   59 1   
    58   55   56 2   
    59   55   60 1   
    60   60   61 1   
    61   60   68 1   
    62   61   62 1   
    63   61   64 1   
    64   61   69 1   
    65   62   63 2   
    66   62   74 1   
    67   64   65 1   
    68   64   70 1   
    69   64   71 1   
    70   65   66 1   
    71   65   67 2   
    72   66   72 1   
    73   66   73 1   
    74   74   75 1   
    75   74   78 1   
    76   75   76 1   
    77   75   79 1   
    78   75   80 1   
    79   76   77 2   
    80   76   81 1   
    81   81   82 1   
    82   81   93 1   
    83   82   83 1   
    84   82   85 1   
    85   82   94 1   
    86   83   84 2   
    87   83  102 1   
    88   85   86 1   
    89   85   95 1   
    90   85   96 1   
    91   86   87 ar  
    92   86   88 ar  
    93   87   89 ar  
    94   87   97 1   
    95   88   90 ar  
    96   88   98 1   
    97   89   91 ar  
    98   89   99 1   
    99   90   91 ar  
   100   90  100 1   
   101   91   92 1   
   102   92  101 1   
   103  102  103 1   
   104  102  110 1   
   105  103  104 1   
   106  103  106 1   
   107  103  111 1   
   108  104  105 2   
   109  104  121 1   
   110  106  107 1   
   111  106  108 1   
   112  106  112 1   
   113  107  109 1   
   114  107  113 1   
   115  107  114 1   
   116  108  115 1   
   117  108  116 1   
   118  108  117 1   
   119  109  118 1   
   120  109  119 1   
   121  109  120 1   
   122  121  122 1   
   123  121  127 1   
   124  122  123 1   
   125  122  125 1   
   126  122  128 1   
   127  123  124 2   
   128  123  132 1   
   129  125  126 1   
   130  125  129 1   
   131  125  130 1   
   132  126  131 1   
   133  132  133 1   
   134  132  137 1   
   135  133  134 1   
   136  133  136 1   
   137  133  138 1   
   138  134  135 2   
   139  134  142 1   
   140  136  139 1   
   141  136  140 1   
   142  136  141 1   
   143  142  143 1   
   144  142  147 1   
   145  143  144 1   
   146  143  146 1   
   147  143  148 1   
   148  144  145 2   
   149  144  152 1   
   150  146  149 1   
   151  146  150 1   
   152  146  151 1   
   153  152  153 1   
   154  152  161 1   
   155  153  154 1   
   156  153  156 1   
   157  153  162 1   
   158  154  155 2   
   159  154  167 1   
   160  156  157 1   
   161  156  163 1   
   162  156  164 1   
   163  157  158 1   
   164  157  165 1   
   165  157  166 1   
   166  158  159 1   
   167  158  160 1   
   168  167  168 1   
   169  167  172 1   
   170  168  169 1   
   171  168  170 1   
   172  168  171 1   
   173  174  175 1   
   174  174  176 1   
   175  177  178 1   
   176  177  179 1   
   177  180  181 1   
   178  180  182 1   
@<TRIPOS>SUBSTRUCTURE
     1 MOL         1 TEMP              0 ****  ****    0 ROOT
