@<TRIPOS>MOLECULE
MOL
  198   191     1     0     0
SMALL
resp


@<TRIPOS>ATOM
      1 C1          3.7010    6.5160   -1.2370 c3        1 MOL     -0.395440
      2 C2          5.2720    6.2810   -1.1290 c         1 MOL      0.618858
      3 O1          5.8270    6.7550   -0.1200 o         1 MOL     -0.548361
      4 H1          3.5080    7.5110   -1.6370 hc        1 MOL      0.105541
      5 H2          3.2660    5.7680   -1.9010 hc        1 MOL      0.105541
      6 H3          3.2510    6.4290   -0.2480 hc        1 MOL      0.105541
      7 N1          5.8470    5.3880   -1.9880 n         1 MOL     -0.619736
      8 C3          7.1580    4.7060   -1.8610 c3        1 MOL      0.305507
      9 C4          7.4510    3.9810   -0.4910 c         1 MOL      0.472336
     10 O2          6.5960    4.0680    0.3980 o         1 MOL     -0.477601
     11 C5          8.2780    5.6530   -2.2190 c3        1 MOL     -0.351992
     12 C6          9.5620    5.0880   -2.7560 c         1 MOL      0.785802
     13 O3         10.5910    5.7180   -2.7970 o         1 MOL     -0.723995
     14 O4          9.5360    3.8530   -3.0600 o         1 MOL     -0.723995
     15 H4          5.2400    4.9880   -2.6900 hn        1 MOL      0.333739
     16 H5          7.0670    3.8830   -2.5610 h1        1 MOL      0.002125
     17 H6          8.5160    6.2950   -1.3620 hc        1 MOL      0.069746
     18 H7          7.9580    6.2850   -3.0410 hc        1 MOL      0.069746
     19 N2          8.6320    3.2710   -0.4130 n         1 MOL     -0.407268
     20 C7          9.1560    2.5550    0.7960 c3        1 MOL      0.145028
     21 C8          8.1510    1.5600    1.3510 c         1 MOL      0.417366
     22 O5          8.2040    1.1910    2.5400 o         1 MOL     -0.546982
     23 C9          9.7800    3.5690    1.8190 c3        1 MOL     -0.061916
     24 C10        11.2110    4.0940    1.4850 c3        1 MOL     -0.036602
     25 C11        11.6190    5.2320    2.5040 c3        1 MOL     -0.131795
     26 C12        10.6970    6.4660    2.7410 c3        1 MOL      0.198542
     27 N3         11.2800    7.3090    3.7060 n4        1 MOL     -0.431466
     28 H8          9.2400    3.2700   -1.2170 hn        1 MOL      0.202263
     29 H9          9.9230    1.8120    0.5530 h1        1 MOL      0.075377
     30 H10         9.8380    3.0950    2.7980 hc        1 MOL      0.024657
     31 H11         9.0340    4.3630    1.8580 hc        1 MOL      0.024657
     32 H12        11.2460    4.4950    0.4720 hc        1 MOL      0.063969
     33 H13        11.8700    3.2400    1.6380 hc        1 MOL      0.063969
     34 H14        12.5640    5.6740    2.1830 hc        1 MOL      0.035471
     35 H15        11.7360    4.7710    3.4760 hc        1 MOL      0.035471
     36 H16         9.7190    6.2060    3.1500 hx        1 MOL      0.066829
     37 H17        10.4290    6.9660    1.8040 hx        1 MOL      0.066829
     38 H18        10.6400    8.0360    3.9740 hn        1 MOL      0.336905
     39 H19        11.6600    6.8110    4.5010 hn        1 MOL      0.336905
     40 H20        12.0550    7.8320    3.3180 hn        1 MOL      0.336905
     41 N4          7.3180    0.9120    0.4930 n         1 MOL     -0.481359
     42 C13         6.5490   -0.3150    0.7580 c3        1 MOL      0.469197
     43 C14         6.5800   -1.1210   -0.5480 c         1 MOL      0.236403
     44 O6          6.4020   -0.4680   -1.5720 o         1 MOL     -0.510483
     45 C15         5.0610   -0.0380    1.0970 c3        1 MOL     -0.337035
     46 C16         4.2270   -1.1760    1.5120 c         1 MOL      0.842715
     47 O7          4.6760   -2.3360    1.6300 o         1 MOL     -0.744077
     48 O8          3.0310   -0.8940    1.7770 o         1 MOL     -0.744077
     49 H21         7.1240    1.3480   -0.4010 hn        1 MOL      0.249694
     50 H22         7.0030   -0.8300    1.6090 h1        1 MOL      0.000526
     51 H23         4.5670    0.3120    0.2000 hc        1 MOL      0.090353
     52 H24         4.9510    0.7280    1.8770 hc        1 MOL      0.090353
     53 N5          6.9000   -2.4190   -0.6670 n         1 MOL     -0.144700
     54 C17         7.3450   -3.2760    0.3850 c3        1 MOL     -0.178849
     55 C18         6.7680   -4.7310    0.1990 c         1 MOL      0.540635
     56 O9          7.4260   -5.6920   -0.1560 o         1 MOL     -0.556332
     57 H25         7.0110   -2.7030   -1.6250 hn        1 MOL      0.248164
     58 H26         6.9750   -2.9820    1.3650 h1        1 MOL      0.076667
     59 H27         8.4310   -3.3040    0.4140 h1        1 MOL      0.076667
     60 N6          5.4830   -4.7840    0.4310 n         1 MOL     -0.018375
     61 C19         4.6020   -5.8850    0.0650 c3        1 MOL     -0.416745
     62 C20         3.1750   -5.3680   -0.1780 c         1 MOL      0.758617
     63 O10         2.7670   -4.3030    0.2590 o         1 MOL     -0.530407
     64 C21         4.5640   -6.9380    1.1950 c3        1 MOL     -0.040029
     65 C22         4.2890   -6.4980    2.6270 c         1 MOL      0.701511
     66 O11         3.8820   -5.3260    2.8850 o         1 MOL     -0.703936
     67 O12         4.3860   -7.3850    3.4900 o         1 MOL     -0.703936
     68 H28         5.0160   -3.9450    0.7450 hn        1 MOL     -0.008347
     69 H29         5.0220   -6.2690   -0.8600 h1        1 MOL      0.122599
     70 H30         5.5140   -7.4560    1.2840 hc        1 MOL      0.032440
     71 H31         3.7450   -7.6110    0.9340 hc        1 MOL      0.032440
     72 N7          2.4560   -6.2430   -0.9020 n         1 MOL     -0.515614
     73 C23         0.9810   -6.0540   -1.2700 c3        1 MOL     -0.034002
     74 C24         0.6320   -4.8050   -2.0970 c         1 MOL      0.548243
     75 O13        -0.4720   -4.7550   -2.6120 o         1 MOL     -0.554242
     76 H32         2.7620   -7.2080   -0.9500 hn        1 MOL      0.350913
     77 H33         0.4370   -5.9470   -0.3360 h1        1 MOL      0.065719
     78 H34         0.6600   -6.9350   -1.8240 h1        1 MOL      0.065719
     79 N8          1.5580   -3.8210   -2.1380 n         1 MOL     -0.444528
     80 C25         1.4220   -2.6160   -2.9470 c3        1 MOL      0.059345
     81 C26         0.9810   -1.4550   -2.1030 c         1 MOL      0.505620
     82 O14         1.4620   -1.2440   -1.0220 o         1 MOL     -0.537489
     83 C27         2.7200   -2.2330   -3.7500 c3        1 MOL      0.275241
     84 C28         3.8070   -1.5510   -2.8210 c3        1 MOL     -0.090184
     85 O15         3.2720   -3.4190   -4.3990 oh        1 MOL     -0.613975
     86 H35         2.2970   -3.8000   -1.4550 hn        1 MOL      0.251485
     87 H36         0.6510   -2.7530   -3.6970 h1        1 MOL      0.064907
     88 H37         2.4000   -1.5910   -4.5690 h1        1 MOL     -0.013888
     89 H38         2.6950   -3.5840   -5.1530 ho        1 MOL      0.388131
     90 H39         4.7110   -1.3610   -3.4130 hc        1 MOL      0.049675
     91 H40         3.4430   -0.5410   -2.6160 hc        1 MOL      0.049675
     92 H41         4.0760   -2.1470   -1.9470 hc        1 MOL      0.049675
     93 N9          0.0940   -0.5810   -2.6070 n         1 MOL     -0.334962
     94 C29        -0.2730    0.7510   -2.0500 c3        1 MOL     -0.309363
     95 C30        -1.7540    0.6620   -1.4680 c         1 MOL      0.553297
     96 O16        -2.2970    1.6560   -1.0450 o         1 MOL     -0.494207
     97 C31        -0.1050    1.9390   -3.0330 c3        1 MOL      0.258399
     98 C32        -0.9870    1.8950   -4.3020 c3        1 MOL      0.137593
     99 C33         1.3480    2.2170   -3.4150 c3        1 MOL     -0.174570
    100 C34        -1.1540    3.1720   -5.1440 c3        1 MOL     -0.395437
    101 H42        -0.3840   -0.7610   -3.4800 hn        1 MOL      0.186787
    102 H43         0.4820    0.8820   -1.2840 h1        1 MOL      0.205514
    103 H44        -0.4430    2.7590   -2.4070 hc        1 MOL     -0.004898
    104 H45        -2.0060    1.6180   -4.0480 hc        1 MOL     -0.008042
    105 H46        -0.5660    1.1410   -4.9720 hc        1 MOL     -0.008042
    106 H47         1.7060    1.4620   -4.1180 hc        1 MOL      0.034681
    107 H48         1.6230    3.1980   -3.7790 hc        1 MOL      0.034681
    108 H49         1.8110    2.0940   -2.4390 hc        1 MOL      0.034681
    109 H50        -1.9110    2.8460   -5.8560 hc        1 MOL      0.099964
    110 H51        -1.7020    3.8850   -4.5160 hc        1 MOL      0.099964
    111 H52        -0.2680    3.5670   -5.6560 hc        1 MOL      0.099964
    112 N10        -2.3310   -0.5900   -1.4600 n         1 MOL     -0.345049
    113 C35        -3.6240   -0.9900   -0.7750 c3        1 MOL     -0.064365
    114 C36        -4.7370   -1.1630   -1.7630 c         1 MOL      0.556708
    115 O17        -4.5710   -1.7980   -2.8020 o         1 MOL     -0.548479
    116 C37        -3.4810   -2.2290    0.0770 c3        1 MOL      0.267096
    117 C38        -2.7370   -3.4400   -0.5190 c3        1 MOL     -0.352072
    118 O18        -2.6100   -1.8310    1.1780 oh        1 MOL     -0.569933
    119 H53        -1.7930   -1.2990   -1.9280 hn        1 MOL      0.233772
    120 H54        -3.9020   -0.1470   -0.1530 h1        1 MOL      0.085554
    121 H55        -4.4760   -2.4850    0.4380 h1        1 MOL      0.000383
    122 H56        -3.0870   -2.1920    1.9360 ho        1 MOL      0.381300
    123 H57        -2.6220   -4.1950    0.2550 hc        1 MOL      0.107416
    124 H58        -3.2630   -3.7940   -1.4040 hc        1 MOL      0.107416
    125 H59        -1.7290   -3.1360   -0.7940 hc        1 MOL      0.107416
    126 N11        -5.9210   -0.7290   -1.4130 n         1 MOL     -0.377278
    127 C39        -7.1480   -0.6210   -2.3300 c3        1 MOL     -0.020902
    128 C40        -8.1050    0.5090   -1.9230 c         1 MOL      0.440329
    129 O19        -8.1410    1.6120   -2.5660 o         1 MOL     -0.541040
    130 C41        -7.8360   -2.0070   -2.5090 c3        1 MOL      0.279829
    131 C42        -9.0070   -2.0520   -3.4370 c3        1 MOL     -0.328854
    132 O20        -8.3690   -2.4550   -1.2570 oh        1 MOL     -0.569641
    133 H60        -6.0150   -0.3290   -0.4930 hn        1 MOL      0.242225
    134 H61        -6.7680   -0.3130   -3.3000 h1        1 MOL      0.107641
    135 H62        -7.0740   -2.7100   -2.8480 h1        1 MOL      0.053107
    136 H63        -7.6730   -2.9380   -0.8080 ho        1 MOL      0.356632
    137 H64        -9.9230   -1.6520   -2.9970 hc        1 MOL      0.093594
    138 H65        -8.8140   -1.4660   -4.3310 hc        1 MOL      0.093594
    139 H66        -9.1980   -3.0690   -3.7800 hc        1 MOL      0.093594
    140 N12        -8.6420    0.4390   -0.7450 n         1 MOL     -0.218772
    141 C43        -9.7410    1.3940   -0.2820 c3        1 MOL     -0.049187
    142 C44        -9.6990    1.8650    1.1290 c         1 MOL      0.361640
    143 O21        -9.1270    1.0680    1.9190 o         1 MOL     -0.560563
    144 C45       -11.1060    0.8660   -0.6940 c3        1 MOL     -0.065406
    145 C46       -11.4820   -0.4090    0.1180 c3        1 MOL      0.057520
    146 C47       -12.7620   -1.0140   -0.4150 c3        1 MOL     -0.017097
    147 C48       -13.4270   -2.0410    0.5350 c3        1 MOL     -0.020813
    148 N13       -14.7620   -2.4920    0.1120 n4        1 MOL     -0.148731
    149 H67        -8.3790   -0.4070   -0.2540 hn        1 MOL      0.193075
    150 H68        -9.6190    2.3130   -0.8630 h1        1 MOL      0.134989
    151 H69       -10.9680    0.5650   -1.7340 hc        1 MOL      0.036634
    152 H70       -11.8380    1.6510   -0.5190 hc        1 MOL      0.036634
    153 H71       -11.5130   -0.2010    1.1900 hc        1 MOL      0.001009
    154 H72       -10.7390   -1.1340   -0.2210 hc        1 MOL      0.001009
    155 H73       -12.4660   -1.5420   -1.3160 hc        1 MOL      0.027122
    156 H74       -13.4380   -0.1950   -0.6610 hc        1 MOL      0.027122
    157 H75       -13.6230   -1.5600    1.4950 hx        1 MOL      0.088379
    158 H76       -12.8220   -2.9430    0.6380 hx        1 MOL      0.088379
    159 H77       -14.6320   -3.0520   -0.7250 hn        1 MOL      0.270169
    160 H78       -15.2010   -3.1420    0.7580 hn        1 MOL      0.270169
    161 H79       -15.4160   -1.7990   -0.2350 hn        1 MOL      0.270169
    162 N14       -10.1920    3.0310    1.5060 n         1 MOL      0.036706
    163 C49       -10.2500    3.4780    2.9250 c3        1 MOL      0.037114
    164 C50        -8.9160    3.8420    3.5330 c         1 MOL      0.355115
    165 O22        -8.7510    3.5710    4.7100 o         1 MOL     -0.515969
    166 C51       -11.2620    4.6940    2.9790 c3        1 MOL     -0.135642
    167 C52       -12.6810    4.1900    2.7600 c3        1 MOL     -0.049731
    168 C53       -13.1890    4.6790    1.3670 c         1 MOL      0.559177
    169 O23       -12.6940    4.0490    0.3620 o         1 MOL     -0.647362
    170 O24       -14.0380    5.6360    1.3160 o         1 MOL     -0.647362
    171 H80       -10.7250    3.4760    0.7740 hn        1 MOL      0.095264
    172 H81       -10.6290    2.7110    3.6140 h1        1 MOL      0.072449
    173 H82       -11.0640    5.4570    2.2240 hc        1 MOL      0.079567
    174 H83       -11.1750    5.1980    3.9390 hc        1 MOL      0.079567
    175 H84       -13.3550    4.6030    3.5120 hc        1 MOL     -0.008275
    176 H85       -12.6330    3.1080    2.8510 hc        1 MOL     -0.008275
    177 N15        -7.9110    4.4170    2.8080 n         1 MOL     -0.363017
    178 C54        -7.7060    4.8480    1.4300 c3        1 MOL     -0.003997
    179 H86        -6.7030    4.5680    1.1080 h1        1 MOL      0.039335
    180 H87        -8.4410    4.3660    0.7850 h1        1 MOL      0.039335
    181 H88        -7.8190    5.9290    1.3670 h1        1 MOL      0.039335
    182 H89        -7.0210    4.4600    3.2860 hn        1 MOL      0.281255
    183 Ca1         2.2260   -3.2860    2.6060 Ca        1 MOL      1.714105
    184 O25         0.5350   -1.4630    3.8380 oh        1 MOL     -0.823299
    185 H90         0.9850   -0.8810    4.4530 ho        1 MOL      0.405916
    186 H91        -0.2960   -1.6640    4.2650 ho        1 MOL      0.405916
    187 O26         3.7260   -2.3770    4.7330 oh        1 MOL     -0.823299
    188 H92         4.4770   -1.7860    4.6400 ho        1 MOL      0.405916
    189 H93         3.7920   -2.7100    5.6290 ho        1 MOL      0.405916
    190 O27         0.3320   -2.3690    1.0270 oh        1 MOL     -0.823299
    191 H94         0.8240   -1.9170    0.3460 ho        1 MOL      0.405916
    192 H95        -0.5040   -1.9000    1.0690 ho        1 MOL      0.405916
    193 O28         1.7560   -4.4150    4.9710 oh        1 MOL     -0.823299
    194 H96         2.5040   -5.0110    5.0350 ho        1 MOL      0.405916
    195 H97         1.0860   -4.8000    5.5280 ho        1 MOL      0.405916
    196 O29         0.4580   -5.2360    2.2180 oh        1 MOL     -0.823299
    197 H98        -0.4870   -5.0860    2.2060 ho        1 MOL      0.405916
    198 H99         0.5510   -6.1460    2.4990 ho        1 MOL      0.405916
@<TRIPOS>BOND
     1    1    2 1   
     2    1    4 1   
     3    1    5 1   
     4    1    6 1   
     5    2    3 2   
     6    2    7 1   
     7    7    8 1   
     8    7   15 1   
     9    8    9 1   
    10    8   11 1   
    11    8   16 1   
    12    9   10 2   
    13    9   19 1   
    14   11   12 1   
    15   11   17 1   
    16   11   18 1   
    17   12   13 1   
    18   12   14 1   
    19   19   20 1   
    20   19   28 1   
    21   20   21 1   
    22   20   23 1   
    23   20   29 1   
    24   21   22 2   
    25   21   41 1   
    26   23   24 1   
    27   23   30 1   
    28   23   31 1   
    29   24   25 1   
    30   24   32 1   
    31   24   33 1   
    32   25   26 1   
    33   25   34 1   
    34   25   35 1   
    35   26   27 1   
    36   26   36 1   
    37   26   37 1   
    38   27   38 1   
    39   27   39 1   
    40   27   40 1   
    41   41   42 1   
    42   41   49 1   
    43   42   43 1   
    44   42   45 1   
    45   42   50 1   
    46   43   44 2   
    47   43   53 1   
    48   45   46 1   
    49   45   51 1   
    50   45   52 1   
    51   46   47 1   
    52   46   48 1   
    53   53   54 1   
    54   53   57 1   
    55   54   55 1   
    56   54   58 1   
    57   54   59 1   
    58   55   56 2   
    59   55   60 1   
    60   60   61 1   
    61   60   68 1   
    62   61   62 1   
    63   61   64 1   
    64   61   69 1   
    65   62   63 2   
    66   62   72 1   
    67   64   65 1   
    68   64   70 1   
    69   64   71 1   
    70   65   66 1   
    71   65   67 1   
    72   72   73 1   
    73   72   76 1   
    74   73   74 1   
    75   73   77 1   
    76   73   78 1   
    77   74   75 2   
    78   74   79 1   
    79   79   80 1   
    80   79   86 1   
    81   80   81 1   
    82   80   83 1   
    83   80   87 1   
    84   81   82 2   
    85   81   93 1   
    86   83   84 1   
    87   83   85 1   
    88   83   88 1   
    89   84   90 1   
    90   84   91 1   
    91   84   92 1   
    92   85   89 1   
    93   93   94 1   
    94   93  101 1   
    95   94   95 1   
    96   94   97 1   
    97   94  102 1   
    98   95   96 2   
    99   95  112 1   
   100   97   98 1   
   101   97   99 1   
   102   97  103 1   
   103   98  100 1   
   104   98  104 1   
   105   98  105 1   
   106   99  106 1   
   107   99  107 1   
   108   99  108 1   
   109  100  109 1   
   110  100  110 1   
   111  100  111 1   
   112  112  113 1   
   113  112  119 1   
   114  113  114 1   
   115  113  116 1   
   116  113  120 1   
   117  114  115 2   
   118  114  126 1   
   119  116  117 1   
   120  116  118 1   
   121  116  121 1   
   122  117  123 1   
   123  117  124 1   
   124  117  125 1   
   125  118  122 1   
   126  126  127 1   
   127  126  133 1   
   128  127  128 1   
   129  127  130 1   
   130  127  134 1   
   131  128  129 2   
   132  128  140 1   
   133  130  131 1   
   134  130  132 1   
   135  130  135 1   
   136  131  137 1   
   137  131  138 1   
   138  131  139 1   
   139  132  136 1   
   140  140  141 1   
   141  140  149 1   
   142  141  142 1   
   143  141  144 1   
   144  141  150 1   
   145  142  143 2   
   146  142  162 1   
   147  144  145 1   
   148  144  151 1   
   149  144  152 1   
   150  145  146 1   
   151  145  153 1   
   152  145  154 1   
   153  146  147 1   
   154  146  155 1   
   155  146  156 1   
   156  147  148 1   
   157  147  157 1   
   158  147  158 1   
   159  148  159 1   
   160  148  160 1   
   161  148  161 1   
   162  162  163 1   
   163  162  171 1   
   164  163  164 1   
   165  163  166 1   
   166  163  172 1   
   167  164  165 2   
   168  164  177 1   
   169  166  167 1   
   170  166  173 1   
   171  166  174 1   
   172  167  168 1   
   173  167  175 1   
   174  167  176 1   
   175  168  169 1   
   176  168  170 1   
   177  177  178 1   
   178  177  182 1   
   179  178  179 1   
   180  178  180 1   
   181  178  181 1   
   182  184  185 1   
   183  184  186 1   
   184  187  188 1   
   185  187  189 1   
   186  190  191 1   
   187  190  192 1   
   188  193  194 1   
   189  193  195 1   
   190  196  197 1   
   191  196  198 1   
@<TRIPOS>SUBSTRUCTURE
     1 MOL         1 TEMP              0 ****  ****    0 ROOT
