@<TRIPOS>MOLECULE
MOL
  195   189     1     0     0
SMALL
resp


@<TRIPOS>ATOM
      1 C1         -3.6650   -5.9910    4.7900 c3        1 MOL     -0.309385
      2 C2         -3.5100   -5.0260    3.6010 c         1 MOL      0.577466
      3 O1         -3.2620   -5.4330    2.4800 o         1 MOL     -0.547917
      4 H1         -4.4290   -5.6100    5.4690 hc        1 MOL      0.077982
      5 H2         -3.9610   -6.9740    4.4250 hc        1 MOL      0.077982
      6 H3         -2.7160   -6.0700    5.3200 hc        1 MOL      0.077982
      7 N1         -3.6130   -3.7410    3.8240 n         1 MOL     -0.199009
      8 C3         -3.6520   -2.7370    2.7440 c3        1 MOL     -0.267391
      9 C4         -2.2880   -2.4410    2.0900 c         1 MOL      0.490517
     10 O2         -2.1980   -1.8030    1.0610 o         1 MOL     -0.470800
     11 C5         -4.5300   -1.5380    3.2290 c3        1 MOL     -0.041185
     12 C6         -3.9600   -1.0030    4.5560 c         1 MOL      0.686920
     13 O3         -4.3110   -1.5650    5.5910 o         1 MOL     -0.687647
     14 O4         -3.4690    0.0980    4.5800 o         1 MOL     -0.687647
     15 H4         -3.8780   -3.3970    4.7340 hn        1 MOL      0.161908
     16 H5         -4.1630   -3.0680    1.8420 h1        1 MOL      0.164712
     17 H6         -5.4960   -2.0210    3.4000 hc        1 MOL      0.047398
     18 H7         -4.5950   -0.7400    2.4830 hc        1 MOL      0.047398
     19 N2         -1.1620   -2.7870    2.7140 n         1 MOL     -0.453756
     20 C7          0.1630   -2.4350    2.2340 c3        1 MOL      0.152834
     21 C8          0.5720   -3.3340    1.0330 c         1 MOL      0.488834
     22 O5          0.3460   -4.5330    1.0150 o         1 MOL     -0.552376
     23 C9          1.1010   -2.3850    3.4350 c3        1 MOL      0.137242
     24 C10         0.9220   -1.1490    4.2830 c3        1 MOL      0.077508
     25 C11         1.9580   -1.1700    5.4200 c3        1 MOL      0.066233
     26 C12         2.0560    0.1420    6.2190 c3        1 MOL     -0.167109
     27 N3          1.0010    0.4790    7.1660 n4        1 MOL     -0.159056
     28 H8         -1.3130   -3.3350    3.5460 hn        1 MOL      0.235460
     29 H9          0.1140   -1.4140    1.8590 h1        1 MOL      0.042028
     30 H10         2.1120   -2.3970    3.0250 hc        1 MOL     -0.037352
     31 H11         1.0170   -3.2510    4.0890 hc        1 MOL     -0.037352
     32 H12        -0.0330   -1.1810    4.7930 hc        1 MOL     -0.021989
     33 H13         1.1790   -0.2600    3.7080 hc        1 MOL     -0.021989
     34 H14         2.9470   -1.4540    5.0670 hc        1 MOL      0.019077
     35 H15         1.6290   -1.9530    6.1060 hc        1 MOL      0.019077
     36 H16         2.0290    0.9710    5.5140 hx        1 MOL      0.123484
     37 H17         2.9510    0.1110    6.8490 hx        1 MOL      0.123484
     38 H18         0.0850    0.5610    6.7570 hn        1 MOL      0.279050
     39 H19         0.9050   -0.2320    7.8730 hn        1 MOL      0.279050
     40 H20         1.2060    1.2710    7.7550 hn        1 MOL      0.279050
     41 N4          1.3010   -2.8440    0.0350 n         1 MOL     -0.373249
     42 C13         1.6490   -1.4680   -0.3040 c3        1 MOL      0.103759
     43 C14         2.4240   -0.6970    0.8330 c         1 MOL      0.316666
     44 O6          2.0010    0.3650    1.2540 o         1 MOL     -0.558645
     45 C15         0.4390   -0.6880   -0.8230 c3        1 MOL      0.011652
     46 C16        -0.5580   -1.3250   -1.7160 c         1 MOL      0.823658
     47 O7         -1.6450   -0.7700   -1.9520 o         1 MOL     -0.873540
     48 O8         -0.3130   -2.3760   -2.3240 o         1 MOL     -0.873540
     49 H21         1.5560   -3.5270   -0.6570 hn        1 MOL      0.256605
     50 H22         2.3980   -1.5390   -1.0980 h1        1 MOL      0.023846
     51 H23         0.8940    0.1480   -1.3500 hc        1 MOL      0.023663
     52 H24        -0.0250   -0.2390    0.0470 hc        1 MOL      0.023663
     53 N5          3.5660   -1.1170    1.3810 n         1 MOL     -0.099496
     54 C17         4.5450   -2.1020    0.8960 c3        1 MOL     -0.071605
     55 C18         5.6130   -2.5160    1.9220 c         1 MOL      0.653648
     56 O9          5.3400   -2.4230    3.1100 o         1 MOL     -0.588713
     57 H25         3.9710   -0.5340    2.1080 hn        1 MOL      0.220642
     58 H26         5.0560   -1.5290    0.1240 h1        1 MOL      0.001516
     59 H27         4.0490   -3.0120    0.5610 h1        1 MOL      0.001516
     60 N6          6.8290   -2.8680    1.4690 n         1 MOL     -0.566557
     61 C19         7.1990   -3.2630    0.0500 c3        1 MOL      0.135648
     62 C20         7.5210   -2.0150   -0.7700 c         1 MOL      0.472156
     63 O10         8.0030   -0.9830   -0.2570 o         1 MOL     -0.463956
     64 C21         8.3220   -4.3080   -0.0590 c3        1 MOL     -0.155283
     65 C22         9.2270   -4.4060    1.1790 c         1 MOL      0.696447
     66 O11        10.3220   -3.7600    1.1950 o         1 MOL     -0.657241
     67 O12         8.8870   -5.1820    2.1220 o         1 MOL     -0.657241
     68 H28         7.5160   -2.7850    2.2020 hn        1 MOL      0.348414
     69 H29         6.3060   -3.6860   -0.4160 h1        1 MOL      0.034564
     70 H30         8.8210   -4.2400   -1.0230 hc        1 MOL      0.020217
     71 H31         7.7320   -5.2250   -0.0770 hc        1 MOL      0.020217
     72 N7          7.2020   -1.9890   -2.0990 n         1 MOL     -0.232454
     73 C23         7.6090   -1.1220   -3.1300 c3        1 MOL     -0.209200
     74 C24         6.9680    0.2610   -3.1050 c         1 MOL      0.588058
     75 O13         7.6050    1.2640   -3.2540 o         1 MOL     -0.538593
     76 H32         6.7290   -2.8330   -2.3880 hn        1 MOL      0.182147
     77 H33         7.4810   -1.6260   -4.0930 h1        1 MOL      0.113517
     78 H34         8.6590   -0.8480   -3.0200 h1        1 MOL      0.113517
     79 N8          5.6690    0.2810   -3.0170 n         1 MOL     -0.493028
     80 C25         4.8320    1.5100   -2.9060 c3        1 MOL      0.059114
     81 C26         4.9490    2.0980   -1.4810 c         1 MOL      0.758610
     82 O14         5.2520    1.3080   -0.5640 o         1 MOL     -0.504348
     83 C27         3.3760    1.1930   -3.1930 c3        1 MOL      0.315831
     84 C28         3.0440    0.7630   -4.6020 c3        1 MOL     -0.335482
     85 O15         2.5160    2.3000   -2.8760 oh        1 MOL     -0.660626
     86 H35         5.2730   -0.6300   -2.8550 hn        1 MOL      0.245321
     87 H36         5.2060    2.1840   -3.6790 h1        1 MOL      0.075274
     88 H37         3.1430    0.4290   -2.4600 h1        1 MOL      0.001180
     89 H38         1.6180    1.9710   -2.9310 ho        1 MOL      0.449304
     90 H39         3.6900   -0.0100   -5.0240 hc        1 MOL      0.082296
     91 H40         2.0280    0.3780   -4.6570 hc        1 MOL      0.082296
     92 H41         3.0380    1.6580   -5.2210 hc        1 MOL      0.082296
     93 N9          4.7830    3.3870   -1.2550 n         1 MOL     -0.730407
     94 C29         4.8050    4.0570    0.1190 c3        1 MOL     -0.123779
     95 C30         3.4750    4.9300    0.3010 c         1 MOL      0.470129
     96 O16         3.4100    5.9520    0.9610 o         1 MOL     -0.529811
     97 C31         6.0850    4.8820    0.4400 c3        1 MOL      0.346131
     98 C32         6.1690    6.0920   -0.5400 c3        1 MOL     -0.191197
     99 C33         7.4340    4.1260    0.3210 c3        1 MOL     -0.215273
    100 C34         7.3820    6.9840   -0.3030 c3        1 MOL     -0.184200
    101 H42         4.4640    3.9120   -2.0630 hn        1 MOL      0.338694
    102 H43         4.7710    3.3310    0.9280 h1        1 MOL      0.116758
    103 H44         5.9900    5.2270    1.4610 hc        1 MOL     -0.039286
    104 H45         5.2910    6.7380   -0.4390 hc        1 MOL      0.084163
    105 H46         6.1490    5.7100   -1.5600 hc        1 MOL      0.084163
    106 H47         7.5340    3.6970   -0.6740 hc        1 MOL      0.061364
    107 H48         8.3210    4.6240    0.7210 hc        1 MOL      0.061364
    108 H49         7.2790    3.3350    1.0570 hc        1 MOL      0.061364
    109 H50         8.3390    6.5620   -0.6180 hc        1 MOL      0.049561
    110 H51         7.2840    7.9760   -0.7530 hc        1 MOL      0.049561
    111 H52         7.3320    7.2780    0.7440 hc        1 MOL      0.049561
    112 N10         2.3710    4.4320   -0.3050 n         1 MOL     -0.092883
    113 C35         0.9700    4.8500   -0.1160 c3        1 MOL     -0.498548
    114 C36         0.0510    3.6270   -0.2570 c         1 MOL      0.817044
    115 O17         0.4130    2.6540   -0.9170 o         1 MOL     -0.547276
    116 C37         0.4280    5.9970   -0.9690 c3        1 MOL      0.524704
    117 C38         0.8550    5.9380   -2.4370 c3        1 MOL     -0.217931
    118 O18         1.0400    7.2070   -0.5510 oh        1 MOL     -0.641344
    119 H53         2.6130    3.5730   -0.7960 hn        1 MOL      0.200643
    120 H54         0.9220    5.1850    0.9190 h1        1 MOL      0.136092
    121 H55        -0.6540    6.1340   -0.9170 h1        1 MOL     -0.026735
    122 H56         1.5230    7.0550    0.2690 ho        1 MOL      0.375540
    123 H57         0.3160    6.7390   -2.9430 hc        1 MOL      0.051548
    124 H58         1.9160    6.1320   -2.4970 hc        1 MOL      0.051548
    125 H59         0.5690    4.9860   -2.8670 hc        1 MOL      0.051548
    126 N11        -1.1360    3.7340    0.3490 n         1 MOL     -0.686955
    127 C39        -2.2730    2.8180    0.4570 c3        1 MOL      0.194394
    128 C40        -3.5570    3.4930   -0.1100 c         1 MOL      0.553345
    129 O19        -3.6050    4.7170   -0.4100 o         1 MOL     -0.529493
    130 C41        -2.3870    2.3090    1.9210 c3        1 MOL      0.118834
    131 C42        -1.3090    1.3040    2.2860 c3        1 MOL     -0.093571
    132 O20        -3.5770    1.5460    2.1020 oh        1 MOL     -0.575090
    133 H60        -1.1660    4.4300    1.0840 hn        1 MOL      0.294082
    134 H61        -2.1330    1.9960   -0.2420 h1        1 MOL      0.100882
    135 H62        -2.3330    3.2150    2.5260 h1        1 MOL      0.024856
    136 H63        -3.5850    1.2820    3.0250 ho        1 MOL      0.390816
    137 H64        -0.2980    1.7130    2.2660 hc        1 MOL      0.027354
    138 H65        -1.4040    1.0050    3.3320 hc        1 MOL      0.027354
    139 H66        -1.3990    0.3960    1.6920 hc        1 MOL      0.027354
    140 N12        -4.6140    2.6370   -0.2320 n         1 MOL     -0.615974
    141 C43        -5.9620    3.0070   -0.7330 c3        1 MOL      0.131991
    142 C44        -6.5890    1.8800   -1.5120 c         1 MOL      0.628565
    143 O21        -7.7110    2.0150   -1.9090 o         1 MOL     -0.596492
    144 C45        -7.0320    3.3960    0.3420 c3        1 MOL     -0.235434
    145 C46        -6.5070    4.5740    1.2160 c3        1 MOL     -0.017113
    146 C47        -6.7120    5.9110    0.5550 c3        1 MOL      0.051316
    147 C48        -6.5790    6.9740    1.5920 c3        1 MOL      0.136826
    148 N13        -7.1790    8.2460    1.1750 n4        1 MOL     -0.304849
    149 H67        -4.4380    1.6830    0.0520 hn        1 MOL      0.366752
    150 H68        -5.9130    3.8210   -1.4570 h1        1 MOL      0.066749
    151 H69        -7.1770    2.5330    0.9900 hc        1 MOL      0.086826
    152 H70        -7.9420    3.6740   -0.1970 hc        1 MOL      0.086826
    153 H71        -5.4660    4.3770    1.4770 hc        1 MOL      0.037755
    154 H72        -6.9710    4.5900    2.1970 hc        1 MOL      0.037755
    155 H73        -7.7420    6.0350    0.2370 hc        1 MOL      0.010805
    156 H74        -5.9920    6.0300   -0.2540 hc        1 MOL      0.010805
    157 H75        -5.5400    7.1140    1.8920 hx        1 MOL      0.030614
    158 H76        -7.0660    6.5570    2.4690 hx        1 MOL      0.030614
    159 H77        -6.7040    9.0360    1.6020 hn        1 MOL      0.267797
    160 H78        -7.0780    8.4000    0.1790 hn        1 MOL      0.267797
    161 H79        -8.1380    8.3010    1.4730 hn        1 MOL      0.267797
    162 N14        -5.9340    0.7520   -1.6880 n         1 MOL     -0.519803
    163 C49        -6.6090   -0.4320   -2.1990 c3        1 MOL     -0.009362
    164 C50        -7.1620   -1.2820   -0.9810 c         1 MOL      0.485788
    165 O22        -6.4640   -1.6660   -0.0510 o         1 MOL     -0.483007
    166 C51        -5.6300   -1.1730   -3.1200 c3        1 MOL     -0.097803
    167 C52        -6.2810   -2.4010   -3.7460 c3        1 MOL      0.000686
    168 C53        -5.2180   -3.3190   -4.4290 c         1 MOL      0.620350
    169 O23        -5.1050   -3.4070   -5.6830 o         1 MOL     -0.711485
    170 O24        -4.4480   -4.0090   -3.7570 o         1 MOL     -0.711485
    171 H80        -4.9960    0.5450   -1.3730 hn        1 MOL      0.318656
    172 H81        -7.3770   -0.1200   -2.9070 h1        1 MOL      0.119561
    173 H82        -4.7600   -1.3730   -2.4910 hc        1 MOL      0.058023
    174 H83        -5.3060   -0.4790   -3.8870 hc        1 MOL      0.058023
    175 H84        -7.1320   -2.0940   -4.3530 hc        1 MOL     -0.009396
    176 H85        -6.7200   -2.9400   -2.9030 hc        1 MOL     -0.009396
    177 N15        -8.4750   -1.6050   -1.0290 n         1 MOL     -0.319683
    178 C54        -9.1140   -2.3220    0.1070 c3        1 MOL     -0.005889
    179 H86        -9.6050   -1.6010    0.7620 h1        1 MOL      0.049588
    180 H87        -9.8530   -3.0250   -0.2770 h1        1 MOL      0.049588
    181 H88        -8.3530   -2.8640    0.6690 h1        1 MOL      0.049588
    182 H89        -9.0890   -1.3340   -1.7860 hn        1 MOL      0.234934
    183 Ca1        -1.8770   -4.1080   -3.7210 Ca        1 MOL      1.848086
    184 O25        -2.4740   -6.4990   -2.6750 oh        1 MOL     -0.968908
    185 H90        -2.8440   -7.2490   -3.1360 ho        1 MOL      0.475024
    186 H91        -2.2560   -6.8310   -1.8100 ho        1 MOL      0.475024
    187 O26        -2.6430   -3.5130   -1.0170 oh        1 MOL     -0.968908
    188 H92        -2.6590   -2.5950   -0.7450 ho        1 MOL      0.475024
    189 H93        -2.1440   -3.9620   -0.3280 ho        1 MOL      0.475024
    190 O27        -2.4670   -1.5050   -4.3000 oh        1 MOL     -0.968908
    191 H94        -2.8420   -0.7400   -4.7380 ho        1 MOL      0.475024
    192 H95        -2.0570   -1.1590   -3.5110 ho        1 MOL      0.475024
    193 O28        -1.8820   -6.1010   -5.6010 oh        1 MOL     -0.968908
    194 H96        -2.3220   -6.9490   -5.5370 ho        1 MOL      0.475024
    195 H97        -1.4460   -6.1240   -6.4540 ho        1 MOL      0.475024
@<TRIPOS>BOND
     1    1    2 1   
     2    1    4 1   
     3    1    5 1   
     4    1    6 1   
     5    2    3 2   
     6    2    7 1   
     7    7    8 1   
     8    7   15 1   
     9    8    9 1   
    10    8   11 1   
    11    8   16 1   
    12    9   10 2   
    13    9   19 1   
    14   11   12 1   
    15   11   17 1   
    16   11   18 1   
    17   12   13 1   
    18   12   14 1   
    19   19   20 1   
    20   19   28 1   
    21   20   21 1   
    22   20   23 1   
    23   20   29 1   
    24   21   22 2   
    25   21   41 1   
    26   23   24 1   
    27   23   30 1   
    28   23   31 1   
    29   24   25 1   
    30   24   32 1   
    31   24   33 1   
    32   25   26 1   
    33   25   34 1   
    34   25   35 1   
    35   26   27 1   
    36   26   36 1   
    37   26   37 1   
    38   27   38 1   
    39   27   39 1   
    40   27   40 1   
    41   41   42 1   
    42   41   49 1   
    43   42   43 1   
    44   42   45 1   
    45   42   50 1   
    46   43   44 2   
    47   43   53 1   
    48   45   46 1   
    49   45   51 1   
    50   45   52 1   
    51   46   47 1   
    52   46   48 1   
    53   53   54 1   
    54   53   57 1   
    55   54   55 1   
    56   54   58 1   
    57   54   59 1   
    58   55   56 2   
    59   55   60 1   
    60   60   61 1   
    61   60   68 1   
    62   61   62 1   
    63   61   64 1   
    64   61   69 1   
    65   62   63 2   
    66   62   72 1   
    67   64   65 1   
    68   64   70 1   
    69   64   71 1   
    70   65   66 1   
    71   65   67 1   
    72   72   73 1   
    73   72   76 1   
    74   73   74 1   
    75   73   77 1   
    76   73   78 1   
    77   74   75 2   
    78   74   79 1   
    79   79   80 1   
    80   79   86 1   
    81   80   81 1   
    82   80   83 1   
    83   80   87 1   
    84   81   82 2   
    85   81   93 1   
    86   83   84 1   
    87   83   85 1   
    88   83   88 1   
    89   84   90 1   
    90   84   91 1   
    91   84   92 1   
    92   85   89 1   
    93   93   94 1   
    94   93  101 1   
    95   94   95 1   
    96   94   97 1   
    97   94  102 1   
    98   95   96 2   
    99   95  112 1   
   100   97   98 1   
   101   97   99 1   
   102   97  103 1   
   103   98  100 1   
   104   98  104 1   
   105   98  105 1   
   106   99  106 1   
   107   99  107 1   
   108   99  108 1   
   109  100  109 1   
   110  100  110 1   
   111  100  111 1   
   112  112  113 1   
   113  112  119 1   
   114  113  114 1   
   115  113  116 1   
   116  113  120 1   
   117  114  115 2   
   118  114  126 1   
   119  116  117 1   
   120  116  118 1   
   121  116  121 1   
   122  117  123 1   
   123  117  124 1   
   124  117  125 1   
   125  118  122 1   
   126  126  127 1   
   127  126  133 1   
   128  127  128 1   
   129  127  130 1   
   130  127  134 1   
   131  128  129 2   
   132  128  140 1   
   133  130  131 1   
   134  130  132 1   
   135  130  135 1   
   136  131  137 1   
   137  131  138 1   
   138  131  139 1   
   139  132  136 1   
   140  140  141 1   
   141  140  149 1   
   142  141  142 1   
   143  141  144 1   
   144  141  150 1   
   145  142  143 2   
   146  142  162 1   
   147  144  145 1   
   148  144  151 1   
   149  144  152 1   
   150  145  146 1   
   151  145  153 1   
   152  145  154 1   
   153  146  147 1   
   154  146  155 1   
   155  146  156 1   
   156  147  148 1   
   157  147  157 1   
   158  147  158 1   
   159  148  159 1   
   160  148  160 1   
   161  148  161 1   
   162  162  163 1   
   163  162  171 1   
   164  163  164 1   
   165  163  166 1   
   166  163  172 1   
   167  164  165 2   
   168  164  177 1   
   169  166  167 1   
   170  166  173 1   
   171  166  174 1   
   172  167  168 1   
   173  167  175 1   
   174  167  176 1   
   175  168  169 1   
   176  168  170 1   
   177  177  178 1   
   178  177  182 1   
   179  178  179 1   
   180  178  180 1   
   181  178  181 1   
   182  184  185 1   
   183  184  186 1   
   184  187  188 1   
   185  187  189 1   
   186  190  191 1   
   187  190  192 1   
   188  193  194 1   
   189  193  195 1   
@<TRIPOS>SUBSTRUCTURE
     1 MOL         1 TEMP              0 ****  ****    0 ROOT
