@<TRIPOS>MOLECULE
MOL
  187   181     1     0     0
SMALL
resp


@<TRIPOS>ATOM
      1 C1          0.2720   -2.9360    3.9710 c3        1 MOL     -0.317411
      2 C2          1.5850   -2.3310    3.5250 c         1 MOL      0.618966
      3 O1          1.7170   -1.3400    2.8380 o         1 MOL     -0.513643
      4 H1          0.0540   -2.6210    4.9910 hc        1 MOL      0.081951
      5 H2         -0.5260   -2.6020    3.3100 hc        1 MOL      0.081951
      6 H3          0.3420   -4.0230    3.9350 hc        1 MOL      0.081951
      7 N1          2.6600   -2.9150    3.9550 n         1 MOL     -0.494688
      8 C3          4.0480   -2.5200    3.5640 c3        1 MOL      0.281394
      9 C4          4.6900   -3.4340    2.4490 c         1 MOL      0.487791
     10 O2          5.6380   -3.0020    1.8960 o         1 MOL     -0.400667
     11 C5          5.0550   -2.4900    4.7370 c3        1 MOL     -0.232782
     12 C6          6.4200   -1.9080    4.4960 c         1 MOL      0.731777
     13 O3          6.4550   -0.7080    4.0550 o         1 MOL     -0.729922
     14 O4          7.4790   -2.5200    4.6890 o         1 MOL     -0.729922
     15 H4          2.5570   -3.7270    4.5490 hn        1 MOL      0.249394
     16 H5          4.0460   -1.5290    3.1110 h1        1 MOL     -0.002832
     17 H6          5.1350   -3.5430    5.0020 hc        1 MOL      0.004476
     18 H7          4.5820   -1.8700    5.5000 hc        1 MOL      0.004476
     19 N2          4.1320   -4.5960    2.1530 n         1 MOL     -0.462917
     20 C7          4.6390   -5.5350    1.1250 c3        1 MOL      0.134645
     21 C8          4.7660   -4.9410   -0.2990 c         1 MOL      0.244508
     22 O5          5.6460   -5.3020   -1.1270 o         1 MOL     -0.436468
     23 C9          5.9550   -6.1410    1.7730 c3        1 MOL     -0.313425
     24 H8          3.2680   -4.7990    2.6440 hn        1 MOL      0.234755
     25 H9          3.9870   -6.4060    1.0680 h1        1 MOL      0.087687
     26 H10         5.7300   -6.5810    2.7440 hc        1 MOL      0.096136
     27 H11         6.3340   -6.9850    1.1970 hc        1 MOL      0.096136
     28 H12         6.7690   -5.4090    1.8230 hc        1 MOL      0.096136
     29 N3          3.9690   -3.8480   -0.5970 n         1 MOL     -0.171786
     30 C10         4.0930   -3.0580   -1.8250 c3        1 MOL      0.156837
     31 C11         5.4740   -2.3800   -2.0640 c         1 MOL      0.274023
     32 O6          6.0060   -2.1670   -3.1580 o         1 MOL     -0.458905
     33 C12         3.4370   -3.7730   -3.0190 c3        1 MOL     -0.287331
     34 C13         2.0490   -4.3560   -2.6850 c         1 MOL      0.852864
     35 O7          1.8830   -5.5960   -2.4610 o         1 MOL     -0.768430
     36 O8          1.0120   -3.6490   -2.9540 o         1 MOL     -0.768430
     37 H13         3.2260   -3.6470    0.0540 hn        1 MOL      0.123762
     38 H14         3.4300   -2.2140   -1.6230 h1        1 MOL      0.042027
     39 H15         4.1590   -4.5340   -3.3170 hc        1 MOL      0.079685
     40 H16         3.3380   -3.0840   -3.8550 hc        1 MOL      0.079685
     41 N4          6.1750   -2.0680   -0.9230 n         1 MOL      0.063301
     42 C14         7.5340   -1.6190   -0.9300 c3        1 MOL     -0.263287
     43 C15         7.8110   -0.3090   -1.5870 c         1 MOL      0.627498
     44 O9          8.7580   -0.2210   -2.4310 o         1 MOL     -0.551347
     45 H17         5.6430   -2.1350   -0.0630 hn        1 MOL      0.044809
     46 H18         8.1170   -2.4280   -1.3710 h1        1 MOL      0.125935
     47 H19         7.8340   -1.5310    0.1150 h1        1 MOL      0.125935
     48 N5          6.9620    0.7150   -1.3300 n         1 MOL     -0.626357
     49 C16         6.9660    1.9710   -2.1170 c3        1 MOL      0.167430
     50 C17         6.5730    3.2530   -1.3790 c         1 MOL      0.480537
     51 O10         6.6530    4.3020   -2.0170 o         1 MOL     -0.536530
     52 C18         6.1470    1.8270   -3.3690 c3        1 MOL     -0.222960
     53 C19         6.5940    2.6380   -4.5800 c         1 MOL      0.631767
     54 N6          7.8520    2.7690   -4.8260 n         1 MOL     -0.700854
     55 O11         5.7190    2.9610   -5.4060 o         1 MOL     -0.586318
     56 H20         6.1060    0.4930   -0.8520 hn        1 MOL      0.300628
     57 H21         8.0250    2.1540   -2.2620 h1        1 MOL      0.063636
     58 H22         5.0900    2.0340   -3.2210 hc        1 MOL      0.111211
     59 H23         6.3120    0.8430   -3.8060 hc        1 MOL      0.111211
     60 H24         8.5820    2.5300   -4.1630 hn        1 MOL      0.326478
     61 H25         8.0590    3.4420   -5.5490 hn        1 MOL      0.326478
     62 N7          6.0240    3.2240   -0.1570 n         1 MOL     -0.398282
     63 C20         5.5910    4.3820    0.5810 c3        1 MOL     -0.086939
     64 C21         4.3460    5.0590    0.0360 c         1 MOL      0.664752
     65 O12         3.6770    4.6940   -0.9760 o         1 MOL     -0.490977
     66 H26         6.0080    2.3560    0.3590 hn        1 MOL      0.299724
     67 H27         6.4050    5.1020    0.7090 h1        1 MOL      0.081126
     68 H28         5.3190    4.0910    1.5960 h1        1 MOL      0.081126
     69 N8          3.9240    6.0470    0.7970 n         1 MOL     -0.540575
     70 C22         2.8530    6.9610    0.4820 c3        1 MOL     -0.110417
     71 C23         1.4200    6.3470    0.6560 c         1 MOL      0.421869
     72 O13         0.4740    7.1650    0.6970 o         1 MOL     -0.548046
     73 C24         2.9560    8.2880    1.2600 c3        1 MOL      0.495431
     74 C25         2.8820    8.2540    2.8350 c3        1 MOL     -0.345434
     75 O14         4.1130    8.9810    0.8090 oh        1 MOL     -0.650083
     76 H29         4.4830    6.2700    1.6080 hn        1 MOL      0.246813
     77 H30         2.9850    7.2770   -0.5620 h1        1 MOL      0.131031
     78 H31         2.1110    8.8680    0.8860 h1        1 MOL      0.024938
     79 H32         4.8610    8.5330    1.2210 ho        1 MOL      0.384917
     80 H33         1.8650    8.0460    3.1440 hc        1 MOL      0.079738
     81 H34         3.5640    7.4380    3.1020 hc        1 MOL      0.079738
     82 H35         3.3690    9.1260    3.2730 hc        1 MOL      0.079738
     83 N9          1.3260    5.0470    0.8980 n         1 MOL     -0.137827
     84 C26         0.1400    4.3460    1.2040 c3        1 MOL     -0.217776
     85 C27         0.1350    2.9970    0.4440 c         1 MOL      0.652299
     86 O15         1.1760    2.3770    0.2780 o         1 MOL     -0.490884
     87 C28        -0.0830    4.1330    2.7890 c3        1 MOL      0.068530
     88 C29         0.8870    3.1380    3.3770 c3        1 MOL     -0.052498
     89 C30         0.0440    5.5240    3.4830 c3        1 MOL     -0.177440
     90 C31         0.7610    3.0170    4.8990 c3        1 MOL     -0.248100
     91 H36         2.1600    4.5030    0.7560 hn        1 MOL      0.155024
     92 H37        -0.6670    5.0210    0.9240 h1        1 MOL      0.114172
     93 H38        -1.0580    3.7030    3.0160 hc        1 MOL      0.031053
     94 H39         1.9170    3.3820    3.1320 hc        1 MOL      0.076814
     95 H40         0.7280    2.1660    2.8980 hc        1 MOL      0.076814
     96 H41         1.0670    5.7980    3.7190 hc        1 MOL      0.047411
     97 H42        -0.4370    6.3010    2.8760 hc        1 MOL      0.047411
     98 H43        -0.4900    5.4520    4.4340 hc        1 MOL      0.047411
     99 H44         1.2760    3.8530    5.3760 hc        1 MOL      0.065677
    100 H45        -0.2750    3.0340    5.2670 hc        1 MOL      0.065677
    101 H46         1.2710    2.1170    5.2290 hc        1 MOL      0.065677
    102 N10        -1.0720    2.5900    0.0300 n         1 MOL     -0.558050
    103 C32        -1.4070    1.3390   -0.6570 c3        1 MOL     -0.030594
    104 C33        -2.6980    1.2730   -1.4490 c         1 MOL      0.682749
    105 O16        -2.7240    0.7610   -2.4750 o         1 MOL     -0.545358
    106 C34        -1.3780    0.2000    0.3560 c3        1 MOL      0.099737
    107 C35        -1.4210   -1.1500   -0.4570 c         1 MOL      0.555691
    108 O17        -0.3960   -1.4950   -1.0700 o         1 MOL     -0.717663
    109 O18        -2.3980   -1.8540   -0.5000 o         1 MOL     -0.717663
    110 H47        -1.8220    3.2110    0.3070 hn        1 MOL      0.235386
    111 H48        -0.5630    1.2390   -1.3420 h1        1 MOL      0.128684
    112 H49        -2.1730    0.2270    1.1020 hc        1 MOL     -0.015489
    113 H50        -0.4480    0.2120    0.9170 hc        1 MOL     -0.015489
    114 N11        -3.7570    1.9070   -0.9410 n         1 MOL     -0.608448
    115 C36        -5.0510    1.8230   -1.5320 c3        1 MOL      0.460387
    116 C37        -6.0780    1.2280   -0.5820 c         1 MOL      0.212091
    117 O19        -6.1110    1.6490    0.5610 o         1 MOL     -0.435107
    118 C38        -5.4690    3.2960   -1.8970 c3        1 MOL     -0.382237
    119 C39        -6.8720    3.4990   -2.3630 ca        1 MOL      0.181391
    120 C40        -7.1690    3.2210   -3.7200 ca        1 MOL     -0.189351
    121 C41        -7.8380    4.0290   -1.5150 ca        1 MOL     -0.189351
    122 C42        -8.4710    3.4740   -4.1550 ca        1 MOL     -0.083754
    123 C43        -9.1090    4.3070   -1.9740 ca        1 MOL     -0.083754
    124 C44        -9.4170    4.0300   -3.3010 ca        1 MOL     -0.161115
    125 H51        -3.7180    2.3450   -0.0350 hn        1 MOL      0.325517
    126 H52        -4.9390    1.2640   -2.4570 h1        1 MOL     -0.005185
    127 H53        -4.8870    3.5400   -2.7830 hc        1 MOL      0.120797
    128 H54        -5.2010    4.0660   -1.1700 hc        1 MOL      0.120797
    129 H55        -6.4250    2.8470   -4.4110 ha        1 MOL      0.136367
    130 H56        -7.5180    4.2480   -0.5010 ha        1 MOL      0.136367
    131 H57        -8.8000    3.2020   -5.1440 ha        1 MOL      0.107216
    132 H58        -9.8560    4.6710   -1.2860 ha        1 MOL      0.107216
    133 H59       -10.4440    4.1790   -3.6070 ha        1 MOL      0.114239
    134 N12        -7.0770    0.4450   -1.0520 n         1 MOL     -0.195667
    135 C45        -8.3540    0.3490   -0.2260 c3        1 MOL      0.030560
    136 C46        -8.1490   -0.2490    1.1660 c         1 MOL      0.393081
    137 O20        -8.9160    0.1430    2.0610 o         1 MOL     -0.528920
    138 C47        -9.3730   -0.3720   -1.0350 c3        1 MOL      0.072481
    139 C48        -8.9380    0.1200   -2.5110 c3        1 MOL     -0.083672
    140 C49        -7.3730    0.0800   -2.3890 c3        1 MOL     -0.050402
    141 H60        -8.8490    1.3150   -0.1220 h1        1 MOL      0.101294
    142 H61        -9.2070   -1.4450   -0.9300 hc        1 MOL      0.004535
    143 H62       -10.4300   -0.1440   -0.8340 hc        1 MOL      0.004535
    144 H63        -9.2860   -0.4790   -3.3530 hc        1 MOL      0.036158
    145 H64        -9.2400    1.1600   -2.5650 hc        1 MOL      0.036158
    146 H65        -6.9770   -0.9070   -2.6180 h1        1 MOL      0.054129
    147 H66        -6.9940    0.8770   -3.0340 h1        1 MOL      0.054129
    148 N13        -7.1250   -1.0370    1.3470 n         1 MOL     -0.293870
    149 C50        -6.8100   -1.5290    2.6870 c3        1 MOL     -0.183861
    150 C51        -6.3470   -0.4110    3.7100 c         1 MOL      0.490478
    151 O21        -6.4870   -0.6190    4.8980 o         1 MOL     -0.542114
    152 C52        -5.7670   -2.6690    2.6080 c3        1 MOL      0.084748
    153 C53        -6.3950   -3.9750    2.0940 c3        1 MOL     -0.003967
    154 C54        -5.3200   -5.1530    2.1350 c         1 MOL      0.610709
    155 O22        -4.9890   -5.7040    1.0910 o         1 MOL     -0.691304
    156 O23        -4.9250   -5.5070    3.2910 o         1 MOL     -0.691304
    157 H67        -6.4270   -1.1870    0.6310 hn        1 MOL      0.307230
    158 H68        -7.7890   -1.9160    2.9720 h1        1 MOL      0.142450
    159 H69        -5.3540   -2.8870    3.5940 hc        1 MOL      0.004986
    160 H70        -4.9520   -2.3180    1.9860 hc        1 MOL      0.004986
    161 H71        -6.7840   -3.8320    1.0860 hc        1 MOL     -0.038420
    162 H72        -7.1980   -4.1660    2.8050 hc        1 MOL     -0.038420
    163 N14        -5.8370    0.6990    3.2480 n         1 MOL     -0.184631
    164 C55        -5.5320    1.8870    4.0970 c3        1 MOL     -0.190698
    165 H73        -5.1920    1.5550    5.0780 h1        1 MOL      0.089999
    166 H74        -4.7490    2.4800    3.6250 h1        1 MOL      0.089999
    167 H75        -6.4310    2.4940    4.2110 h1        1 MOL      0.089999
    168 H76        -5.7400    0.7490    2.2460 hn        1 MOL      0.170480
    169 Ca1        -1.3810   -3.7940   -1.9240 Ca        1 MOL      1.790607
    170 O24        -0.6100   -6.4430   -2.2850 oh        1 MOL     -0.818123
    171 H77         0.2980   -6.1600   -2.3130 ho        1 MOL      0.394495
    172 H78        -0.6010   -7.3270   -2.6530 ho        1 MOL      0.394495
    173 O25        -2.3760   -1.6850   -3.8090 oh        1 MOL     -0.818123
    174 H79        -2.2320   -0.8180   -3.4390 ho        1 MOL      0.394495
    175 H80        -3.1130   -1.5720   -4.4090 ho        1 MOL      0.394495
    176 O26        -3.8230   -4.6020   -2.6720 oh        1 MOL     -0.818123
    177 H81        -3.7560   -5.1580   -3.4450 ho        1 MOL      0.394495
    178 H82        -4.6430   -4.1340   -2.7780 ho        1 MOL      0.394495
    179 O27        -1.6690   -4.7330   -4.6590 oh        1 MOL     -0.818123
    180 H83        -1.6140   -5.6260   -5.0070 ho        1 MOL      0.394495
    181 H84        -1.8690   -4.1870   -5.4160 ho        1 MOL      0.394495
    182 O28        -2.4480   -5.4750   -0.1180 oh        1 MOL     -0.818123
    183 H85        -3.2060   -5.6280    0.4530 ho        1 MOL      0.394495
    184 H86        -1.7740   -6.0610    0.2150 ho        1 MOL      0.394495
    185 O29         0.3880   -4.2820    0.0980 oh        1 MOL     -0.818123
    186 H87         0.5150   -4.8950    0.8220 ho        1 MOL      0.394495
    187 H88         1.0520   -3.6070    0.2410 ho        1 MOL      0.394495
@<TRIPOS>BOND
     1    1    2 1   
     2    1    4 1   
     3    1    5 1   
     4    1    6 1   
     5    2    3 2   
     6    2    7 1   
     7    7    8 1   
     8    7   15 1   
     9    8    9 1   
    10    8   11 1   
    11    8   16 1   
    12    9   10 2   
    13    9   19 1   
    14   11   12 1   
    15   11   17 1   
    16   11   18 1   
    17   12   13 1   
    18   12   14 1   
    19   19   20 1   
    20   19   24 1   
    21   20   21 1   
    22   20   23 1   
    23   20   25 1   
    24   21   22 2   
    25   21   29 1   
    26   23   26 1   
    27   23   27 1   
    28   23   28 1   
    29   29   30 1   
    30   29   37 1   
    31   30   31 1   
    32   30   33 1   
    33   30   38 1   
    34   31   32 2   
    35   31   41 1   
    36   33   34 1   
    37   33   39 1   
    38   33   40 1   
    39   34   35 1   
    40   34   36 1   
    41   41   42 1   
    42   41   45 1   
    43   42   43 1   
    44   42   46 1   
    45   42   47 1   
    46   43   44 2   
    47   43   48 1   
    48   48   49 1   
    49   48   56 1   
    50   49   50 1   
    51   49   52 1   
    52   49   57 1   
    53   50   51 2   
    54   50   62 1   
    55   52   53 1   
    56   52   58 1   
    57   52   59 1   
    58   53   54 1   
    59   53   55 2   
    60   54   60 1   
    61   54   61 1   
    62   62   63 1   
    63   62   66 1   
    64   63   64 1   
    65   63   67 1   
    66   63   68 1   
    67   64   65 2   
    68   64   69 1   
    69   69   70 1   
    70   69   76 1   
    71   70   71 1   
    72   70   73 1   
    73   70   77 1   
    74   71   72 2   
    75   71   83 1   
    76   73   74 1   
    77   73   75 1   
    78   73   78 1   
    79   74   80 1   
    80   74   81 1   
    81   74   82 1   
    82   75   79 1   
    83   83   84 1   
    84   83   91 1   
    85   84   85 1   
    86   84   87 1   
    87   84   92 1   
    88   85   86 2   
    89   85  102 1   
    90   87   88 1   
    91   87   89 1   
    92   87   93 1   
    93   88   90 1   
    94   88   94 1   
    95   88   95 1   
    96   89   96 1   
    97   89   97 1   
    98   89   98 1   
    99   90   99 1   
   100   90  100 1   
   101   90  101 1   
   102  102  103 1   
   103  102  110 1   
   104  103  104 1   
   105  103  106 1   
   106  103  111 1   
   107  104  105 2   
   108  104  114 1   
   109  106  107 1   
   110  106  112 1   
   111  106  113 1   
   112  107  108 1   
   113  107  109 1   
   114  114  115 1   
   115  114  125 1   
   116  115  116 1   
   117  115  118 1   
   118  115  126 1   
   119  116  117 2   
   120  116  134 1   
   121  118  119 1   
   122  118  127 1   
   123  118  128 1   
   124  119  120 ar  
   125  119  121 ar  
   126  120  122 ar  
   127  120  129 1   
   128  121  123 ar  
   129  121  130 1   
   130  122  124 ar  
   131  122  131 1   
   132  123  124 ar  
   133  123  132 1   
   134  124  133 1   
   135  134  135 1   
   136  134  140 1   
   137  135  136 1   
   138  135  138 1   
   139  135  141 1   
   140  136  137 2   
   141  136  148 1   
   142  138  139 1   
   143  138  142 1   
   144  138  143 1   
   145  139  140 1   
   146  139  144 1   
   147  139  145 1   
   148  140  146 1   
   149  140  147 1   
   150  148  149 1   
   151  148  157 1   
   152  149  150 1   
   153  149  152 1   
   154  149  158 1   
   155  150  151 2   
   156  150  163 1   
   157  152  153 1   
   158  152  159 1   
   159  152  160 1   
   160  153  154 1   
   161  153  161 1   
   162  153  162 1   
   163  154  155 1   
   164  154  156 1   
   165  163  164 1   
   166  163  168 1   
   167  164  165 1   
   168  164  166 1   
   169  164  167 1   
   170  170  171 1   
   171  170  172 1   
   172  173  174 1   
   173  173  175 1   
   174  176  177 1   
   175  176  178 1   
   176  179  180 1   
   177  179  181 1   
   178  182  183 1   
   179  182  184 1   
   180  185  186 1   
   181  185  187 1   
@<TRIPOS>SUBSTRUCTURE
     1 MOL         1 TEMP              0 ****  ****    0 ROOT
