@<TRIPOS>MOLECULE
MOL
  185   180     1     0     0
SMALL
resp


@<TRIPOS>ATOM
      1 C1         -5.5780    1.2000   -4.1150 c3        1 MOL     -0.321237
      2 C2         -6.2570    1.2870   -2.6550 c         1 MOL      0.517619
      3 O1         -5.6640    1.0970   -1.5990 o         1 MOL     -0.412700
      4 H1         -4.6030    0.7190   -4.0340 hc        1 MOL      0.092431
      5 H2         -6.2160    0.6180   -4.7800 hc        1 MOL      0.092431
      6 H3         -5.4540    2.2060   -4.5190 hc        1 MOL      0.092431
      7 N1         -7.5950    1.5050   -2.6620 n         1 MOL     -0.490314
      8 C3         -8.4360    1.5510   -1.4910 c3        1 MOL      0.168569
      9 C4         -8.3320    0.3630   -0.5260 c         1 MOL      0.424334
     10 O2         -8.5170    0.4310    0.6200 o         1 MOL     -0.432697
     11 C5         -8.2310    2.9500   -0.9150 c3        1 MOL     -0.173694
     12 C6         -9.3530    3.3950    0.0150 c         1 MOL      0.719099
     13 O3        -10.3780    3.6560   -0.6890 o         1 MOL     -0.684030
     14 O4         -9.3090    3.5430    1.2260 o         1 MOL     -0.684030
     15 H4         -8.1500    1.5820   -3.4980 hn        1 MOL      0.312563
     16 H5         -9.4690    1.7100   -1.8160 h1        1 MOL     -0.004156
     17 H6         -8.0380    3.7120   -1.6790 hc        1 MOL      0.034937
     18 H7         -7.3500    2.9470   -0.2730 hc        1 MOL      0.034937
     19 N2         -8.0420   -0.8340   -1.1020 n         1 MOL     -0.452067
     20 C7         -7.9200   -2.1780   -0.4260 c3        1 MOL      0.196089
     21 C8         -6.4410   -2.4700   -0.0340 c         1 MOL      0.435778
     22 O5         -6.1420   -3.6050    0.3840 o         1 MOL     -0.586962
     23 C9         -8.7620   -3.3660   -1.0610 c3        1 MOL     -0.023512
     24 C10       -10.2850   -3.1540   -1.0380 c3        1 MOL     -0.109151
     25 C11       -10.8980   -2.7060    0.2920 c3        1 MOL      0.017121
     26 C12       -11.0230   -4.0190    1.0910 c3        1 MOL      0.081228
     27 N3        -11.9330   -3.9360    2.2460 n4        1 MOL     -0.360591
     28 H8         -7.9430   -0.8100   -2.1080 hn        1 MOL      0.216479
     29 H9         -8.3590   -2.0700    0.5670 h1        1 MOL      0.060585
     30 H10        -8.5010   -4.2550   -0.4850 hc        1 MOL      0.020795
     31 H11        -8.5000   -3.5160   -2.1110 hc        1 MOL      0.020795
     32 H12       -10.7650   -4.0960   -1.3000 hc        1 MOL      0.044923
     33 H13       -10.4590   -2.4230   -1.8220 hc        1 MOL      0.044923
     34 H14       -11.8940   -2.3210    0.0940 hc        1 MOL      0.034517
     35 H15       -10.3010   -1.9410    0.7810 hc        1 MOL      0.034517
     36 H16       -10.0180   -4.1970    1.4810 hx        1 MOL      0.059836
     37 H17       -11.3730   -4.8230    0.4340 hx        1 MOL      0.059836
     38 H18       -11.7950   -4.7030    2.8950 hn        1 MOL      0.298431
     39 H19       -11.5560   -3.1130    2.7000 hn        1 MOL      0.298431
     40 H20       -12.9180   -3.8560    2.0470 hn        1 MOL      0.298431
     41 N4         -5.4330   -1.6210   -0.3020 n         1 MOL     -0.342550
     42 C13        -4.0110   -1.9400   -0.2030 c3        1 MOL     -0.126916
     43 C14        -3.7150   -2.0950    1.2580 c         1 MOL      0.823056
     44 O6         -4.0260   -1.1980    2.0240 o         1 MOL     -0.583744
     45 C15        -3.1400   -0.8560   -0.9370 c3        1 MOL      0.036472
     46 C16        -1.7340   -1.2260   -0.9010 c         1 MOL      0.552266
     47 O7         -1.2350   -1.7730   -1.9050 o         1 MOL     -0.700011
     48 O8         -1.0420   -0.9860    0.1270 o         1 MOL     -0.700011
     49 H21        -5.7010   -0.8150   -0.8340 hn        1 MOL      0.199312
     50 H22        -3.9530   -2.8580   -0.7920 h1        1 MOL      0.081909
     51 H23        -3.2470    0.1460   -0.5270 hc        1 MOL      0.049613
     52 H24        -3.4810   -0.7560   -1.9640 hc        1 MOL      0.049613
     53 N5         -3.0630   -3.2040    1.5220 n         1 MOL     -0.471303
     54 C17        -2.7560   -3.7900    2.8950 c3        1 MOL     -0.116489
     55 C18        -1.8420   -2.9840    3.8400 c         1 MOL      0.497560
     56 O9         -2.0070   -3.1490    5.0440 o         1 MOL     -0.530872
     57 H25        -2.6770   -3.6880    0.7200 hn        1 MOL      0.275965
     58 H26        -2.2690   -4.7680    2.8140 h1        1 MOL      0.103447
     59 H27        -3.7020   -4.0110    3.4050 h1        1 MOL      0.103447
     60 N6         -0.9680   -2.1330    3.2490 n         1 MOL     -0.359361
     61 C19        -0.1580   -1.1520    4.0520 c3        1 MOL      0.153609
     62 C20        -0.4590    0.3030    3.6300 c         1 MOL      0.414730
     63 O10         0.2520    1.1950    4.0170 o         1 MOL     -0.516526
     64 C21         1.2530   -1.7390    4.1500 c3        1 MOL     -0.333353
     65 C22         2.0780   -1.4760    2.8940 c         1 MOL      0.892445
     66 N7          3.1840   -0.9020    3.0730 n         1 MOL     -0.833156
     67 O11         1.6870   -1.7580    1.8000 o         1 MOL     -0.790762
     68 H28        -1.0010   -1.9490    2.2540 hn        1 MOL      0.303705
     69 H29        -0.6280   -1.2270    5.0300 h1        1 MOL      0.081246
     70 H30         1.3590   -2.8030    4.3800 hc        1 MOL      0.093130
     71 H31         1.7320   -1.1690    4.9510 hc        1 MOL      0.093130
     72 H32         3.3810   -0.6070    4.0220 hn        1 MOL      0.361218
     73 H33         3.7580   -0.6240    2.2970 hn        1 MOL      0.361218
     74 N8         -1.5440    0.5030    2.8440 n         1 MOL     -0.158275
     75 C23        -2.1010    1.8750    2.7910 c3        1 MOL     -0.251987
     76 C24        -1.4230    2.7010    1.6560 c         1 MOL      0.477121
     77 O12        -1.2600    3.9240    1.8010 o         1 MOL     -0.570000
     78 H34        -2.0820   -0.3310    2.6680 hn        1 MOL      0.139899
     79 H35        -1.9680    2.4010    3.7410 h1        1 MOL      0.148353
     80 H36        -3.1480    1.8650    2.5000 h1        1 MOL      0.148353
     81 N9         -0.9440    2.0780    0.5900 n         1 MOL     -0.072304
     82 C25        -0.1410    2.7810   -0.4780 c3        1 MOL      0.097098
     83 C26         1.2530    2.0590   -0.5270 c         1 MOL      0.249484
     84 O13         1.2960    0.8660   -0.4780 o         1 MOL     -0.432479
     85 C27        -0.9260    2.8340   -1.7960 c3        1 MOL     -0.007733
     86 C28        -2.0100    3.8760   -1.7270 ca        1 MOL      0.087951
     87 C29        -1.7860    5.1600   -2.2580 ca        1 MOL     -0.223388
     88 C30        -3.3370    3.6180   -1.3690 ca        1 MOL     -0.223388
     89 C31        -2.7880    6.1540   -2.2610 ca        1 MOL     -0.152916
     90 C32        -4.2560    4.6630   -1.1310 ca        1 MOL     -0.152916
     91 C33        -4.0520    5.9170   -1.7280 ca        1 MOL      0.271638
     92 O14        -4.8120    7.0270   -1.5240 oh        1 MOL     -0.540385
     93 H37        -1.0040    1.0730    0.6310 hn        1 MOL      0.067789
     94 H38         0.1210    3.7860   -0.1650 h1        1 MOL      0.034600
     95 H39        -1.3730    1.8870   -2.1090 hc        1 MOL      0.014225
     96 H40        -0.2300    3.1050   -2.5930 hc        1 MOL      0.014225
     97 H41        -0.8360    5.4260   -2.6970 ha        1 MOL      0.109616
     98 H42        -3.6540    2.6110   -1.1120 ha        1 MOL      0.109616
     99 H43        -2.6380    7.1830   -2.5600 ha        1 MOL      0.124360
    100 H44        -5.2220    4.4580   -0.6920 ha        1 MOL      0.124360
    101 H45        -5.4690    6.8950   -0.8430 ho        1 MOL      0.423895
    102 N10         2.3800    2.6980   -0.6320 n         1 MOL     -0.232477
    103 C34         3.7210    2.1870   -0.7080 c3        1 MOL      0.065596
    104 C35         4.3430    1.8090    0.6570 c         1 MOL      0.479037
    105 O15         4.6010    0.6260    0.8730 o         1 MOL     -0.370022
    106 C36         4.7330    3.0300   -1.5430 c3        1 MOL      0.060428
    107 C37         4.1470    3.5950   -2.8690 c3        1 MOL      0.117374
    108 C38         6.0590    2.3090   -1.8760 c3        1 MOL     -0.847670
    109 C39         3.5650    2.5160   -3.7780 c3        1 MOL     -0.271071
    110 H46         2.3070    3.6970   -0.4870 hn        1 MOL      0.235814
    111 H47         3.6950    1.2780   -1.3130 h1        1 MOL      0.015103
    112 H48         4.9230    3.9560   -0.9880 hc        1 MOL     -0.015244
    113 H49         4.9510    4.1250   -3.3590 hc        1 MOL     -0.007231
    114 H50         3.3710    4.3150   -2.6350 hc        1 MOL     -0.007231
    115 H51         6.5580    1.9310   -0.9840 hc        1 MOL      0.243930
    116 H52         5.9120    1.5440   -2.6460 hc        1 MOL      0.243930
    117 H53         6.6850    3.0510   -2.3530 hc        1 MOL      0.243930
    118 H54         4.3370    1.8570   -4.1730 hc        1 MOL      0.082776
    119 H55         2.8100    1.9350   -3.2480 hc        1 MOL      0.082776
    120 H56         3.0660    2.8060   -4.7020 hc        1 MOL      0.082776
    121 N11         4.5900    2.7680    1.5500 n         1 MOL     -0.518589
    122 C40         5.2830    2.8420    2.8930 c3        1 MOL      0.210669
    123 C41         6.7260    2.3990    2.7460 c         1 MOL      0.331472
    124 O16         7.1440    1.8070    3.7020 o         1 MOL     -0.495916
    125 C42         5.2640    4.2500    3.5100 c3        1 MOL      0.088091
    126 O17         3.9140    4.5350    3.9740 oh        1 MOL     -0.559602
    127 H57         4.1400    3.6410    1.3420 hn        1 MOL      0.266213
    128 H58         4.8340    2.1340    3.5930 h1        1 MOL      0.110988
    129 H59         5.6440    4.9380    2.7630 h1        1 MOL      0.059288
    130 H60         5.9570    4.2370    4.3620 h1        1 MOL      0.059288
    131 H61         3.7120    5.4130    3.6350 ho        1 MOL      0.399347
    132 N12         7.4110    2.6870    1.6760 n         1 MOL     -0.395970
    133 C43         8.6800    2.0920    1.1990 c3        1 MOL      0.222886
    134 C44         8.6010    0.5470    1.0770 c         1 MOL      0.486750
    135 O18         9.6050   -0.0410    0.7440 o         1 MOL     -0.550741
    136 C45         9.8490    2.6630    1.9400 c3        1 MOL     -0.509094
    137 H62         6.9500    3.3210    1.0290 hn        1 MOL      0.251790
    138 H63         8.7590    2.4070    0.1570 h1        1 MOL      0.061468
    139 H64         9.7590    2.4470    3.0060 hc        1 MOL      0.153566
    140 H65        10.8010    2.3080    1.5460 hc        1 MOL      0.153566
    141 H66         9.8650    3.7310    1.7250 hc        1 MOL      0.153566
    142 N13         7.4980   -0.1440    1.3370 n         1 MOL     -0.291807
    143 C46         7.4180   -1.5990    1.0020 c3        1 MOL      0.184759
    144 C47         7.2160   -1.8750   -0.4970 c         1 MOL      0.480553
    145 O19         6.5780   -1.0860   -1.1620 o         1 MOL     -0.456511
    146 C48         6.4320   -2.2660    1.9350 c3        1 MOL     -0.202056
    147 H67         6.6030    0.3180    1.3170 hn        1 MOL      0.128193
    148 H68         8.3580   -2.1200    1.1870 h1        1 MOL      0.039560
    149 H69         6.5820   -3.3520    1.9370 hc        1 MOL      0.064634
    150 H70         6.5250   -1.9190    2.9550 hc        1 MOL      0.064634
    151 H71         5.4040   -2.1580    1.6020 hc        1 MOL      0.064634
    152 N14         7.5850   -3.0670   -0.9990 n         1 MOL     -0.659646
    153 C49         7.1480   -3.5140   -2.3170 c3        1 MOL     -0.005897
    154 C50         7.6810   -2.7480   -3.4900 c         1 MOL      0.348755
    155 O20         7.1550   -2.8620   -4.6670 o         1 MOL     -0.493187
    156 C51         5.6090   -3.7750   -2.4540 c3        1 MOL     -0.035550
    157 C52         4.9070   -4.4190   -1.2890 c3        1 MOL      0.115481
    158 C53         3.4200   -4.6620   -1.4990 c         1 MOL      0.648958
    159 O21         2.5980   -4.1650   -0.7510 o         1 MOL     -0.717490
    160 O22         2.9950   -5.2650   -2.5190 o         1 MOL     -0.717490
    161 H72         8.0230   -3.7410   -0.3890 hn        1 MOL      0.376768
    162 H73         7.5280   -4.5390   -2.3310 h1        1 MOL      0.138244
    163 H74         5.4690   -4.5250   -3.2280 hc        1 MOL      0.043064
    164 H75         5.0470   -2.8700   -2.6740 hc        1 MOL      0.043064
    165 H76         4.9890   -3.8480   -0.3610 hc        1 MOL     -0.052070
    166 H77         5.3690   -5.3880   -1.1130 hc        1 MOL     -0.052070
    167 N15         8.6910   -1.8650   -3.3080 n         1 MOL     -0.217638
    168 C54         9.2800   -1.1150   -4.3730 c3        1 MOL     -0.117452
    169 H78        10.3230   -1.4070   -4.4890 h1        1 MOL      0.076031
    170 H79         8.7410   -1.3150   -5.2990 h1        1 MOL      0.076031
    171 H80         9.2240   -0.0510   -4.1420 h1        1 MOL      0.076031
    172 H81         9.0430   -1.7490   -2.3620 hn        1 MOL      0.244111
    173 Ca1         1.1940   -1.9180   -0.7890 Ca        1 MOL      1.775207
    174 O23         1.1610   -3.3940   -3.1880 oh        1 MOL     -0.850805
    175 H82         1.7660   -4.0590   -2.8770 ho        1 MOL      0.412005
    176 H83         0.8350   -3.7240   -4.0250 ho        1 MOL      0.412005
    177 O24        -0.5710   -3.8130    0.3230 oh        1 MOL     -0.850805
    178 H84        -1.0610   -4.4070   -0.2420 ho        1 MOL      0.412005
    179 H85        -0.1840   -4.3780    0.9870 ho        1 MOL      0.412005
    180 O25         3.7600   -1.1700   -0.8340 oh        1 MOL     -0.850805
    181 H86         4.5900   -1.0560   -1.3090 ho        1 MOL      0.412005
    182 H87         3.8890   -0.6780   -0.0250 ho        1 MOL      0.412005
    183 O26         1.7360   -0.5010   -2.9560 oh        1 MOL     -0.850805
    184 H88         1.6990    0.4390   -3.1050 ho        1 MOL      0.412005
    185 H89         1.9530   -0.8710   -3.8110 ho        1 MOL      0.412005
@<TRIPOS>BOND
     1    1    2 1   
     2    1    4 1   
     3    1    5 1   
     4    1    6 1   
     5    2    3 2   
     6    2    7 1   
     7    7    8 1   
     8    7   15 1   
     9    8    9 1   
    10    8   11 1   
    11    8   16 1   
    12    9   10 2   
    13    9   19 1   
    14   11   12 1   
    15   11   17 1   
    16   11   18 1   
    17   12   13 1   
    18   12   14 1   
    19   19   20 1   
    20   19   28 1   
    21   20   21 1   
    22   20   23 1   
    23   20   29 1   
    24   21   22 2   
    25   21   41 1   
    26   23   24 1   
    27   23   30 1   
    28   23   31 1   
    29   24   25 1   
    30   24   32 1   
    31   24   33 1   
    32   25   26 1   
    33   25   34 1   
    34   25   35 1   
    35   26   27 1   
    36   26   36 1   
    37   26   37 1   
    38   27   38 1   
    39   27   39 1   
    40   27   40 1   
    41   41   42 1   
    42   41   49 1   
    43   42   43 1   
    44   42   45 1   
    45   42   50 1   
    46   43   44 2   
    47   43   53 1   
    48   45   46 1   
    49   45   51 1   
    50   45   52 1   
    51   46   47 1   
    52   46   48 1   
    53   53   54 1   
    54   53   57 1   
    55   54   55 1   
    56   54   58 1   
    57   54   59 1   
    58   55   56 2   
    59   55   60 1   
    60   60   61 1   
    61   60   68 1   
    62   61   62 1   
    63   61   64 1   
    64   61   69 1   
    65   62   63 2   
    66   62   74 1   
    67   64   65 1   
    68   64   70 1   
    69   64   71 1   
    70   65   66 1   
    71   65   67 2   
    72   66   72 1   
    73   66   73 1   
    74   74   75 1   
    75   74   78 1   
    76   75   76 1   
    77   75   79 1   
    78   75   80 1   
    79   76   77 2   
    80   76   81 1   
    81   81   82 1   
    82   81   93 1   
    83   82   83 1   
    84   82   85 1   
    85   82   94 1   
    86   83   84 2   
    87   83  102 1   
    88   85   86 1   
    89   85   95 1   
    90   85   96 1   
    91   86   87 ar  
    92   86   88 ar  
    93   87   89 ar  
    94   87   97 1   
    95   88   90 ar  
    96   88   98 1   
    97   89   91 ar  
    98   89   99 1   
    99   90   91 ar  
   100   90  100 1   
   101   91   92 1   
   102   92  101 1   
   103  102  103 1   
   104  102  110 1   
   105  103  104 1   
   106  103  106 1   
   107  103  111 1   
   108  104  105 2   
   109  104  121 1   
   110  106  107 1   
   111  106  108 1   
   112  106  112 1   
   113  107  109 1   
   114  107  113 1   
   115  107  114 1   
   116  108  115 1   
   117  108  116 1   
   118  108  117 1   
   119  109  118 1   
   120  109  119 1   
   121  109  120 1   
   122  121  122 1   
   123  121  127 1   
   124  122  123 1   
   125  122  125 1   
   126  122  128 1   
   127  123  124 2   
   128  123  132 1   
   129  125  126 1   
   130  125  129 1   
   131  125  130 1   
   132  126  131 1   
   133  132  133 1   
   134  132  137 1   
   135  133  134 1   
   136  133  136 1   
   137  133  138 1   
   138  134  135 2   
   139  134  142 1   
   140  136  139 1   
   141  136  140 1   
   142  136  141 1   
   143  142  143 1   
   144  142  147 1   
   145  143  144 1   
   146  143  146 1   
   147  143  148 1   
   148  144  145 2   
   149  144  152 1   
   150  146  149 1   
   151  146  150 1   
   152  146  151 1   
   153  152  153 1   
   154  152  161 1   
   155  153  154 1   
   156  153  156 1   
   157  153  162 1   
   158  154  155 2   
   159  154  167 1   
   160  156  157 1   
   161  156  163 1   
   162  156  164 1   
   163  157  158 1   
   164  157  165 1   
   165  157  166 1   
   166  158  159 1   
   167  158  160 1   
   168  167  168 1   
   169  167  172 1   
   170  168  169 1   
   171  168  170 1   
   172  168  171 1   
   173  174  175 1   
   174  174  176 1   
   175  177  178 1   
   176  177  179 1   
   177  180  181 1   
   178  180  182 1   
   179  183  184 1   
   180  183  185 1   
@<TRIPOS>SUBSTRUCTURE
     1 MOL         1 TEMP              0 ****  ****    0 ROOT
