@<TRIPOS>MOLECULE
MOL
  192   187     1     0     0
SMALL
resp


@<TRIPOS>ATOM
      1 C1          9.3840    0.7250    1.5710 c3        1 MOL     -0.405536
      2 C2          8.1170    0.3010    0.7620 c         1 MOL      0.716324
      3 O1          6.9950    0.0820    1.2630 o         1 MOL     -0.699929
      4 H1          9.7680    1.6660    1.1780 hc        1 MOL      0.106603
      5 H2          9.1200    0.8520    2.6210 hc        1 MOL      0.106603
      6 H3         10.1490   -0.0460    1.4790 hc        1 MOL      0.106603
      7 N1          8.4120   -0.0350   -0.4800 n         1 MOL     -0.362732
      8 C3          7.5020   -0.4990   -1.5300 c3        1 MOL     -0.135397
      9 C4          6.9110   -1.9520   -1.2910 c         1 MOL      0.603434
     10 O2          6.7140   -2.6660   -2.2880 o         1 MOL     -0.473095
     11 C5          8.1130   -0.4140   -2.9810 c3        1 MOL     -0.002668
     12 C6          8.8210    0.9250   -3.1710 c         1 MOL      0.704246
     13 O3          8.2170    1.7610   -3.8540 o         1 MOL     -0.664795
     14 O4         10.0570    1.0870   -2.8650 o         1 MOL     -0.664795
     15 H4          9.2870    0.2450   -0.8870 hn        1 MOL      0.158459
     16 H5          6.6580    0.1770   -1.4760 h1        1 MOL      0.092020
     17 H6          7.3180   -0.4480   -3.7290 hc        1 MOL      0.023837
     18 H7          8.7010   -1.2640   -3.3170 hc        1 MOL      0.023837
     19 N2          6.7750   -2.4350   -0.0270 n         1 MOL     -0.506379
     20 C7          6.1610   -3.7440    0.1160 c3        1 MOL      0.166366
     21 C8          4.6570   -3.8470   -0.3770 c         1 MOL      0.321438
     22 O5          4.3190   -4.7900   -1.0840 o         1 MOL     -0.510796
     23 C9          6.2440   -4.3150    1.5130 c3        1 MOL     -0.131530
     24 C10         7.5960   -4.1440    2.1290 c3        1 MOL      0.071846
     25 C11         8.7690   -4.8030    1.4480 c3        1 MOL      0.068886
     26 C12        10.0570   -4.3780    2.1370 c3        1 MOL     -0.087119
     27 N3         10.1840   -5.0380    3.4630 n4        1 MOL     -0.263758
     28 H8          6.9630   -1.8190    0.7520 hn        1 MOL      0.250858
     29 H9          6.6950   -4.4640   -0.4970 h1        1 MOL      0.030755
     30 H10         5.9630   -5.3680    1.5410 hc        1 MOL      0.044728
     31 H11         5.5180   -3.7400    2.0930 hc        1 MOL      0.044728
     32 H12         7.5050   -4.4870    3.1610 hc        1 MOL     -0.028907
     33 H13         7.8960   -3.1020    2.1960 hc        1 MOL     -0.028907
     34 H14         8.7880   -4.4470    0.4170 hc        1 MOL      0.033335
     35 H15         8.6050   -5.8770    1.4430 hc        1 MOL      0.033335
     36 H16        10.0860   -3.2910    2.2150 hx        1 MOL      0.101907
     37 H17        10.7840   -4.7780    1.4420 hx        1 MOL      0.101907
     38 H18         9.5580   -4.5930    4.1260 hn        1 MOL      0.266962
     39 H19        10.1180   -6.0370    3.3370 hn        1 MOL      0.266962
     40 H20        11.0390   -4.7830    3.9430 hn        1 MOL      0.266962
     41 N4          3.7430   -2.9600   -0.0820 n         1 MOL     -0.210506
     42 C13         3.8960   -1.6850    0.6560 c3        1 MOL      0.050022
     43 C14         4.0630   -0.5060   -0.3280 c         1 MOL      0.324115
     44 O6          3.8700   -0.7020   -1.5630 o         1 MOL     -0.476778
     45 C15         2.7150   -1.4780    1.6700 c3        1 MOL     -0.306622
     46 C16         1.3980   -1.9090    1.0920 c         1 MOL      0.601311
     47 O7          0.9920   -1.3270    0.0910 o         1 MOL     -0.635065
     48 O8          0.9850   -2.9930    1.5480 o         1 MOL     -0.635065
     49 H21         2.8120   -3.2920   -0.2730 hn        1 MOL      0.330552
     50 H22         4.7850   -1.6870    1.2860 h1        1 MOL      0.127346
     51 H23         2.6280   -0.4270    1.9510 hc        1 MOL      0.046329
     52 H24         2.8260   -2.0220    2.6030 hc        1 MOL      0.046329
     53 N5          4.2490    0.7180    0.1380 n         1 MOL     -0.071986
     54 C17         4.2980    1.9600   -0.5720 c3        1 MOL     -0.186206
     55 C18         2.8960    2.4820   -0.9920 c         1 MOL      0.506840
     56 O9          1.8550    2.0050   -0.4820 o         1 MOL     -0.722704
     57 H25         4.1690    0.8040    1.1480 hn        1 MOL      0.226049
     58 H26         4.9150    1.8150   -1.4550 h1        1 MOL      0.109953
     59 H27         4.7610    2.7210    0.0490 h1        1 MOL      0.109953
     60 N6          2.9360    3.5250   -1.7700 n         1 MOL     -0.377899
     61 C19         1.8270    4.3740   -2.2670 c3        1 MOL      0.257077
     62 C20         2.2740    5.8410   -2.2200 c         1 MOL      0.380923
     63 O10         3.4710    6.1160   -1.9660 o         1 MOL     -0.527678
     64 C21         1.3840    3.9190   -3.6920 c3        1 MOL     -0.246839
     65 C22         1.0250    2.4340   -3.7280 c         1 MOL      0.578963
     66 O11         0.2740    1.9580   -2.8320 o         1 MOL     -0.615892
     67 O12         1.5650    1.7100   -4.6430 o         1 MOL     -0.615892
     68 H28         3.8400    3.9170   -2.0180 hn        1 MOL      0.294292
     69 H29         0.9810    4.2540   -1.5860 h1        1 MOL      0.061005
     70 H30         2.1830    3.9770   -4.4270 hc        1 MOL      0.068990
     71 H31         0.5800    4.4770   -4.1700 hc        1 MOL      0.068990
     72 N7          1.3530    6.7980   -2.3150 n         1 MOL     -0.353407
     73 C23        -0.0930    6.6920   -2.5660 c3        1 MOL     -0.105343
     74 C24        -0.8700    6.5770   -1.2550 c         1 MOL      0.479973
     75 O13        -1.0400    7.5600   -0.5610 o         1 MOL     -0.524727
     76 H32         1.7220    7.7340   -2.2370 hn        1 MOL      0.309236
     77 H33        -0.4210    5.9180   -3.2590 h1        1 MOL      0.083596
     78 H34        -0.4260    7.6080   -3.0530 h1        1 MOL      0.083596
     79 N8         -1.3070    5.3620   -0.9190 n         1 MOL     -0.279154
     80 C25        -1.9080    5.0110    0.3680 c3        1 MOL     -0.031007
     81 C26        -1.1870    3.7830    0.9630 c         1 MOL      0.749551
     82 O14        -0.6460    2.8940    0.2380 o         1 MOL     -0.707044
     83 C27        -3.4320    4.9720    0.1910 c3        1 MOL      0.281295
     84 C28        -4.0640    5.0790    1.5850 c3        1 MOL     -0.422452
     85 O15        -3.8480    3.7720   -0.4600 oh        1 MOL     -0.626806
     86 H35        -1.3960    4.6410   -1.6200 hn        1 MOL      0.213673
     87 H36        -1.5950    5.8000    1.0540 h1        1 MOL      0.065664
     88 H37        -3.7440    5.8610   -0.3590 h1        1 MOL      0.050703
     89 H38        -4.8000    3.8320   -0.5920 ho        1 MOL      0.416243
     90 H39        -5.1170    5.0020    1.3490 hc        1 MOL      0.117329
     91 H40        -3.8820    4.1460    2.1160 hc        1 MOL      0.117329
     92 H41        -3.8830    6.0470    2.0580 hc        1 MOL      0.117329
     93 N9         -1.0240    3.7580    2.2960 n         1 MOL     -0.425976
     94 C29        -0.5370    2.6200    3.1610 c3        1 MOL     -0.076012
     95 C30        -1.2910    1.3160    2.8700 c         1 MOL      0.359064
     96 O16        -1.2260    0.7260    1.8320 o         1 MOL     -0.450206
     97 C31         0.9960    2.4740    3.0700 c3        1 MOL      0.084829
     98 C32         1.8220    3.7500    3.3700 c3        1 MOL     -0.061617
     99 C33         1.4070    1.1670    3.8520 c3        1 MOL     -0.592970
    100 C34         2.7410    4.2030    2.2040 c3        1 MOL     -0.151409
    101 H42        -1.5820    4.4550    2.7680 hn        1 MOL      0.257267
    102 H43        -0.7000    2.9170    4.1940 h1        1 MOL      0.086736
    103 H44         1.1960    2.2510    2.0190 hc        1 MOL      0.144752
    104 H45         2.3990    3.7200    4.2900 hc        1 MOL      0.035770
    105 H46         1.1910    4.6280    3.5280 hc        1 MOL      0.035770
    106 H47         2.4340    0.9480    3.5610 hc        1 MOL      0.171360
    107 H48         1.2000    1.3600    4.8980 hc        1 MOL      0.171360
    108 H49         0.9650    0.2030    3.5740 hc        1 MOL      0.171360
    109 H50         2.1220    4.2930    1.3020 hc        1 MOL      0.051016
    110 H51         3.2890    5.0860    2.5080 hc        1 MOL      0.051016
    111 H52         3.3900    3.3410    2.0830 hc        1 MOL      0.051016
    112 N10        -2.0200    0.8420    3.8820 n         1 MOL     -0.299548
    113 C35        -2.5940   -0.5420    3.8750 c3        1 MOL     -0.335934
    114 C36        -3.9080   -0.7050    3.1000 c         1 MOL      0.633765
    115 O17        -4.1210   -1.7500    2.5800 o         1 MOL     -0.493654
    116 C37        -2.6430   -1.2080    5.2700 c3        1 MOL      0.413125
    117 C38        -3.8810   -0.6870    6.0840 c3        1 MOL     -0.119865
    118 O18        -1.4590   -0.9400    5.9930 oh        1 MOL     -0.618665
    119 H53        -2.0350    1.3220    4.7760 hn        1 MOL      0.277050
    120 H54        -1.7740   -1.0910    3.4280 h1        1 MOL      0.142548
    121 H55        -2.8320   -2.2740    5.1770 h1        1 MOL      0.016688
    122 H56        -0.7290   -1.4440    5.6420 ho        1 MOL      0.403460
    123 H57        -4.7860   -0.8410    5.5080 hc        1 MOL      0.026536
    124 H58        -3.9520   -1.1770    7.0520 hc        1 MOL      0.026536
    125 H59        -3.9230    0.3930    6.2780 hc        1 MOL      0.026536
    126 N11        -4.7660    0.3110    3.0150 n         1 MOL     -0.257310
    127 C39        -6.1230    0.3220    2.5310 c3        1 MOL     -0.170537
    128 C40        -6.2250   -0.3990    1.1410 c         1 MOL      0.279384
    129 O19        -5.5650   -0.0720    0.2120 o         1 MOL     -0.388510
    130 C41        -6.5670    1.7120    2.3830 c3        1 MOL      0.455008
    131 C42        -8.0590    1.8010    2.0950 c3        1 MOL     -0.336238
    132 O20        -6.2500    2.4030    3.5410 oh        1 MOL     -0.643541
    133 H60        -4.5240    1.1660    3.4900 hn        1 MOL      0.189465
    134 H61        -6.7360   -0.2000    3.2610 h1        1 MOL      0.091992
    135 H62        -6.0420    2.1830    1.5550 h1        1 MOL      0.023297
    136 H63        -6.6940    1.9830    4.2800 ho        1 MOL      0.406076
    137 H64        -8.6000    1.3080    2.8990 hc        1 MOL      0.082109
    138 H65        -8.3580    2.8550    2.0460 hc        1 MOL      0.082109
    139 H66        -8.3070    1.4020    1.1110 hc        1 MOL      0.082109
    140 N12        -7.1140   -1.4050    1.0460 n         1 MOL     -0.436864
    141 C43        -7.3070   -2.1710   -0.2900 c3        1 MOL      0.112806
    142 C44        -6.0650   -2.4260   -1.1070 c         1 MOL      0.485642
    143 O21        -6.0780   -2.1870   -2.3140 o         1 MOL     -0.512146
    144 C45        -8.4440   -1.2990   -0.9530 c3        1 MOL     -0.575768
    145 C46        -9.1890   -1.9900   -2.1160 c3        1 MOL      0.182241
    146 C47       -10.4010   -1.2170   -2.5400 c3        1 MOL     -0.000152
    147 C48       -11.2630   -1.9390   -3.6770 c3        1 MOL     -0.303393
    148 N13       -11.9110   -3.2430   -3.2830 n4        1 MOL     -0.062414
    149 H67        -7.6950   -1.5340    1.8530 hn        1 MOL      0.290148
    150 H68        -7.7000   -3.1550   -0.0490 h1        1 MOL      0.060227
    151 H69        -7.9410   -0.4320   -1.3740 hc        1 MOL      0.213763
    152 H70        -9.2770   -1.0480   -0.2890 hc        1 MOL      0.213763
    153 H71        -9.5070   -2.9840   -1.7880 hc        1 MOL      0.031952
    154 H72        -8.5910   -2.0910   -3.0230 hc        1 MOL      0.031952
    155 H73       -10.0990   -0.2270   -2.8830 hc        1 MOL      0.022699
    156 H74       -11.0640   -0.9890   -1.7140 hc        1 MOL      0.022699
    157 H75       -10.6540   -2.0900   -4.5700 hx        1 MOL      0.176722
    158 H76       -12.1360   -1.3280   -3.8850 hx        1 MOL      0.176722
    159 H77       -11.2840   -4.0230   -3.1510 hn        1 MOL      0.178215
    160 H78       -12.4150   -3.1180   -2.4080 hn        1 MOL      0.178215
    161 H79       -12.5730   -3.5970   -3.9620 hn        1 MOL      0.178215
    162 N14        -5.0640   -2.8980   -0.3950 n         1 MOL     -0.403978
    163 C49        -3.7080   -3.1040   -0.9690 c3        1 MOL      0.108402
    164 C50        -2.4860   -2.6350   -0.1090 c         1 MOL      0.683295
    165 O22        -1.8780   -1.5890   -0.3740 o         1 MOL     -0.739903
    166 C51        -3.5100   -4.4930   -1.6670 c3        1 MOL      0.081521
    167 C52        -4.4330   -4.7200   -2.8710 c3        1 MOL     -0.325309
    168 C53        -4.0960   -6.1110   -3.4790 c         1 MOL      0.713886
    169 O23        -4.9520   -7.0120   -3.2770 o         1 MOL     -0.627329
    170 O24        -3.0880   -6.4340   -4.1380 o         1 MOL     -0.627329
    171 H80        -5.1750   -2.9530    0.6090 hn        1 MOL      0.264883
    172 H81        -3.7560   -2.4150   -1.8130 h1        1 MOL      0.073178
    173 H82        -3.6370   -5.3700   -1.0280 hc        1 MOL      0.013049
    174 H83        -2.4740   -4.5250   -2.0050 hc        1 MOL      0.013049
    175 H84        -4.2230   -3.9040   -3.5500 hc        1 MOL      0.067762
    176 H85        -5.4660   -4.8150   -2.5450 hc        1 MOL      0.067762
    177 N15        -1.9140   -3.4410    0.7960 n         1 MOL     -0.422556
    178 C54        -2.1180   -4.8220    1.2420 c3        1 MOL     -0.096014
    179 H86        -3.1250   -4.9280    1.6460 h1        1 MOL      0.061143
    180 H87        -1.9930   -5.5000    0.3980 h1        1 MOL      0.061143
    181 H88        -1.3900   -5.0660    2.0160 h1        1 MOL      0.061143
    182 H89        -0.9610   -3.1930    1.0240 hn        1 MOL      0.329043
    183 Ca1        -0.4430    0.5110   -0.8130 Ca        1 MOL      1.803766
    184 O25         1.3390   -0.4930   -2.6820 oh        1 MOL     -0.852142
    185 H90         1.4020    0.4010   -3.0210 ho        1 MOL      0.413564
    186 H91         2.2170   -0.6990   -2.3720 ho        1 MOL      0.413564
    187 O26        -3.1470    1.3130   -0.6090 oh        1 MOL     -0.852142
    188 H92        -3.9760    0.9720   -0.2610 ho        1 MOL      0.413564
    189 H93        -3.1300    2.2290   -0.3260 ho        1 MOL      0.413564
    190 O27        -2.0390   -0.1740   -2.8770 oh        1 MOL     -0.852142
    191 H94        -1.9030   -1.0100   -3.3400 ho        1 MOL      0.413564
    192 H95        -2.9810   -0.0090   -2.9530 ho        1 MOL      0.413564
@<TRIPOS>BOND
     1    1    2 1   
     2    1    4 1   
     3    1    5 1   
     4    1    6 1   
     5    2    3 2   
     6    2    7 1   
     7    7    8 1   
     8    7   15 1   
     9    8    9 1   
    10    8   11 1   
    11    8   16 1   
    12    9   10 2   
    13    9   19 1   
    14   11   12 1   
    15   11   17 1   
    16   11   18 1   
    17   12   13 1   
    18   12   14 1   
    19   19   20 1   
    20   19   28 1   
    21   20   21 1   
    22   20   23 1   
    23   20   29 1   
    24   21   22 2   
    25   21   41 1   
    26   23   24 1   
    27   23   30 1   
    28   23   31 1   
    29   24   25 1   
    30   24   32 1   
    31   24   33 1   
    32   25   26 1   
    33   25   34 1   
    34   25   35 1   
    35   26   27 1   
    36   26   36 1   
    37   26   37 1   
    38   27   38 1   
    39   27   39 1   
    40   27   40 1   
    41   41   42 1   
    42   41   49 1   
    43   42   43 1   
    44   42   45 1   
    45   42   50 1   
    46   43   44 2   
    47   43   53 1   
    48   45   46 1   
    49   45   51 1   
    50   45   52 1   
    51   46   47 1   
    52   46   48 1   
    53   53   54 1   
    54   53   57 1   
    55   54   55 1   
    56   54   58 1   
    57   54   59 1   
    58   55   56 2   
    59   55   60 1   
    60   60   61 1   
    61   60   68 1   
    62   61   62 1   
    63   61   64 1   
    64   61   69 1   
    65   62   63 2   
    66   62   72 1   
    67   64   65 1   
    68   64   70 1   
    69   64   71 1   
    70   65   66 1   
    71   65   67 1   
    72   72   73 1   
    73   72   76 1   
    74   73   74 1   
    75   73   77 1   
    76   73   78 1   
    77   74   75 2   
    78   74   79 1   
    79   79   80 1   
    80   79   86 1   
    81   80   81 1   
    82   80   83 1   
    83   80   87 1   
    84   81   82 2   
    85   81   93 1   
    86   83   84 1   
    87   83   85 1   
    88   83   88 1   
    89   84   90 1   
    90   84   91 1   
    91   84   92 1   
    92   85   89 1   
    93   93   94 1   
    94   93  101 1   
    95   94   95 1   
    96   94   97 1   
    97   94  102 1   
    98   95   96 2   
    99   95  112 1   
   100   97   98 1   
   101   97   99 1   
   102   97  103 1   
   103   98  100 1   
   104   98  104 1   
   105   98  105 1   
   106   99  106 1   
   107   99  107 1   
   108   99  108 1   
   109  100  109 1   
   110  100  110 1   
   111  100  111 1   
   112  112  113 1   
   113  112  119 1   
   114  113  114 1   
   115  113  116 1   
   116  113  120 1   
   117  114  115 2   
   118  114  126 1   
   119  116  117 1   
   120  116  118 1   
   121  116  121 1   
   122  117  123 1   
   123  117  124 1   
   124  117  125 1   
   125  118  122 1   
   126  126  127 1   
   127  126  133 1   
   128  127  128 1   
   129  127  130 1   
   130  127  134 1   
   131  128  129 2   
   132  128  140 1   
   133  130  131 1   
   134  130  132 1   
   135  130  135 1   
   136  131  137 1   
   137  131  138 1   
   138  131  139 1   
   139  132  136 1   
   140  140  141 1   
   141  140  149 1   
   142  141  142 1   
   143  141  144 1   
   144  141  150 1   
   145  142  143 2   
   146  142  162 1   
   147  144  145 1   
   148  144  151 1   
   149  144  152 1   
   150  145  146 1   
   151  145  153 1   
   152  145  154 1   
   153  146  147 1   
   154  146  155 1   
   155  146  156 1   
   156  147  148 1   
   157  147  157 1   
   158  147  158 1   
   159  148  159 1   
   160  148  160 1   
   161  148  161 1   
   162  162  163 1   
   163  162  171 1   
   164  163  164 1   
   165  163  166 1   
   166  163  172 1   
   167  164  165 2   
   168  164  177 1   
   169  166  167 1   
   170  166  173 1   
   171  166  174 1   
   172  167  168 1   
   173  167  175 1   
   174  167  176 1   
   175  168  169 1   
   176  168  170 1   
   177  177  178 1   
   178  177  182 1   
   179  178  179 1   
   180  178  180 1   
   181  178  181 1   
   182  184  185 1   
   183  184  186 1   
   184  187  188 1   
   185  187  189 1   
   186  190  191 1   
   187  190  192 1   
@<TRIPOS>SUBSTRUCTURE
     1 MOL         1 TEMP              0 ****  ****    0 ROOT
