@<TRIPOS>MOLECULE
MOL
  182   178     1     0     0
SMALL
resp


@<TRIPOS>ATOM
      1 C1          2.2030   -4.4060    6.1090 c3        1 MOL     -0.353501
      2 C2          2.2400   -4.0320    4.6450 c         1 MOL      0.728862
      3 O1          1.6660   -4.6250    3.7190 o         1 MOL     -0.593551
      4 H1          3.1280   -4.0870    6.5880 hc        1 MOL      0.094024
      5 H2          1.3570   -3.9130    6.5900 hc        1 MOL      0.094024
      6 H3          2.0970   -5.4870    6.2070 hc        1 MOL      0.094024
      7 N1          3.0210   -2.9620    4.3120 n         1 MOL     -0.521452
      8 C3          3.1530   -2.6020    2.8760 c3        1 MOL     -0.107395
      9 C4          3.8900   -3.6890    2.0020 c         1 MOL      0.695398
     10 O2          4.8550   -4.2270    2.4940 o         1 MOL     -0.570004
     11 C5          3.8860   -1.3510    2.8590 c3        1 MOL      0.129569
     12 C6          3.8210   -0.6960    1.4690 c         1 MOL      0.601039
     13 O3          3.8740    0.5800    1.3910 o         1 MOL     -0.663981
     14 O4          3.7100   -1.3720    0.4370 o         1 MOL     -0.663981
     15 H4          3.5940   -2.4740    4.9810 hn        1 MOL      0.313046
     16 H5          2.1850   -2.4740    2.4110 h1        1 MOL      0.061827
     17 H6          4.9250   -1.4320    3.1700 hc        1 MOL     -0.033385
     18 H7          3.4340   -0.6510    3.5750 hc        1 MOL     -0.033385
     19 N2          3.3100   -4.1640    0.8630 n         1 MOL     -0.414495
     20 C7          3.7000   -5.1930   -0.0450 c3        1 MOL      0.273743
     21 C8          4.6470   -4.6160   -1.0880 c         1 MOL      0.370350
     22 O5          5.2920   -5.4420   -1.7220 o         1 MOL     -0.556969
     23 C9          2.4360   -5.8960   -0.6070 c3        1 MOL     -0.186007
     24 C10         2.6180   -7.3220   -1.1390 c3        1 MOL      0.137932
     25 C11         1.4140   -7.9230   -1.9510 c3        1 MOL     -0.209572
     26 C12         1.6010   -9.3410   -2.5130 c3        1 MOL      0.131800
     27 N3          0.4740   -9.8430   -3.2780 n4        1 MOL     -0.097984
     28 H8          2.5130   -3.6680    0.5050 hn        1 MOL      0.237166
     29 H9          4.2800   -6.0250    0.3590 h1        1 MOL      0.010549
     30 H10         2.0710   -5.2600   -1.4070 hc        1 MOL      0.043158
     31 H11         1.6740   -5.9370    0.1670 hc        1 MOL      0.043158
     32 H12         2.7710   -7.9940   -0.3020 hc        1 MOL      0.014993
     33 H13         3.5570   -7.4080   -1.6900 hc        1 MOL      0.014993
     34 H14         1.2660   -7.3040   -2.8340 hc        1 MOL      0.063194
     35 H15         0.5820   -8.0250   -1.2570 hc        1 MOL      0.063194
     36 H16         1.7500   -9.9700   -1.6390 hx        1 MOL      0.038581
     37 H17         2.5020   -9.4190   -3.1320 hx        1 MOL      0.038581
     38 H18        -0.4090   -9.7450   -2.8100 hn        1 MOL      0.206146
     39 H19         0.3550   -9.5720   -4.2440 hn        1 MOL      0.206146
     40 H20         0.6570  -10.8310   -3.3610 hn        1 MOL      0.206146
     41 N4          4.7760   -3.2940   -1.3500 n         1 MOL      0.030091
     42 C13         5.7810   -2.8650   -2.3010 c3        1 MOL     -0.023276
     43 C14         6.7780   -1.9860   -1.5640 c         1 MOL      0.493420
     44 O6          7.8590   -1.7370   -2.0820 o         1 MOL     -0.566113
     45 C15         5.1570   -2.0120   -3.4160 c3        1 MOL     -0.168523
     46 C16         4.1650   -0.9270   -2.8210 c         1 MOL      0.601942
     47 O7          2.9650   -1.0100   -3.0170 o         1 MOL     -0.695004
     48 O8          4.6400    0.0380   -2.1620 o         1 MOL     -0.695004
     49 H21         4.2750   -2.6390   -0.7700 hn        1 MOL     -0.196980
     50 H22         6.2550   -3.6960   -2.8320 h1        1 MOL      0.099878
     51 H23         4.6720   -2.5820   -4.2060 hc        1 MOL      0.064592
     52 H24         5.9670   -1.4430   -3.8720 hc        1 MOL      0.064592
     53 N5          6.4230   -1.4230   -0.3520 n         1 MOL     -0.361432
     54 C17         7.4510   -0.7160    0.5640 c3        1 MOL     -0.153914
     55 C18         7.2570    0.8270    0.5160 c         1 MOL      0.492491
     56 O9          7.7230    1.5070    1.4370 o         1 MOL     -0.539057
     57 H25         5.4410   -1.5240   -0.1220 hn        1 MOL      0.280006
     58 H26         8.4430   -0.8770    0.1500 h1        1 MOL      0.133020
     59 H27         7.4120   -0.9930    1.6150 h1        1 MOL      0.133020
     60 N6          6.6980    1.4380   -0.5720 n         1 MOL     -0.189292
     61 C19         6.5760    2.8650   -0.8230 c3        1 MOL      0.125852
     62 C20         5.0640    3.3790   -0.8810 c         1 MOL      0.476435
     63 O10         4.0950    2.6450   -0.6560 o         1 MOL     -0.401243
     64 C21         7.4620    3.0410   -2.0840 c3        1 MOL     -0.442900
     65 C22         8.9710    2.9390   -1.8510 c         1 MOL      0.700109
     66 N7          9.6320    2.1540   -2.6160 n         1 MOL     -0.790827
     67 O11         9.5660    3.5400   -0.9320 o         1 MOL     -0.550200
     68 H28         6.5160    0.8300   -1.3560 hn        1 MOL      0.225651
     69 H29         7.1050    3.3740   -0.0120 h1        1 MOL      0.066308
     70 H30         7.1560    4.0210   -2.4490 hc        1 MOL      0.092229
     71 H31         7.1900    2.3090   -2.8550 hc        1 MOL      0.092229
     72 H32         9.1130    1.5930   -3.2700 hn        1 MOL      0.380371
     73 H33        10.6460    2.0790   -2.5640 hn        1 MOL      0.380371
     74 N8          4.9120    4.7200   -1.1020 n         1 MOL     -0.495895
     75 C23         3.6650    5.4630   -1.2720 c3        1 MOL      0.020062
     76 C24         2.7190    5.0320   -0.1370 c         1 MOL      0.616659
     77 O12         3.1550    5.2070    1.0480 o         1 MOL     -0.514685
     78 H34         5.7270    5.3000   -1.1810 hn        1 MOL      0.329687
     79 H35         3.2360    5.3090   -2.2630 h1        1 MOL      0.053198
     80 H36         3.7980    6.5490   -1.2720 h1        1 MOL      0.053198
     81 N9          1.4570    4.7250   -0.4400 n         1 MOL     -0.894763
     82 C25         0.4500    4.5660    0.6550 c3        1 MOL      0.551779
     83 C26         0.5690    3.0960    1.1940 c         1 MOL      0.562314
     84 O13         1.2950    2.3190    0.6320 o         1 MOL     -0.539166
     85 C27        -0.9080    5.0100    0.2320 c3        1 MOL     -0.327811
     86 C28        -1.0050    6.4440   -0.0470 ca        1 MOL      0.255885
     87 C29        -1.3540    6.8810   -1.3290 ca        1 MOL     -0.266479
     88 C30        -0.8240    7.4260    0.9560 ca        1 MOL     -0.266479
     89 C31        -1.6120    8.2560   -1.5710 ca        1 MOL     -0.155118
     90 C32        -0.9400    8.8230    0.7170 ca        1 MOL     -0.155118
     91 C33        -1.3220    9.2220   -0.5580 ca        1 MOL      0.208921
     92 O14        -1.6620   10.5270   -0.7080 oh        1 MOL     -0.419767
     93 H37         1.1050    4.8810   -1.3790 hn        1 MOL      0.374196
     94 H38         0.6900    5.2520    1.4740 h1        1 MOL      0.010934
     95 H39        -1.5230    4.7340    1.0890 hc        1 MOL      0.063288
     96 H40        -1.2260    4.3780   -0.5950 hc        1 MOL      0.063288
     97 H41        -1.5810    6.1750   -2.1150 ha        1 MOL      0.146658
     98 H42        -0.4520    7.1100    1.9190 ha        1 MOL      0.146658
     99 H43        -1.8870    8.5650   -2.5670 ha        1 MOL      0.143355
    100 H44        -0.6020    9.5400    1.4610 ha        1 MOL      0.143355
    101 H45        -1.7280   10.7770   -1.6320 ho        1 MOL      0.342057
    102 N10        -0.1130    2.8050    2.2540 n         1 MOL     -0.835850
    103 C34        -0.2210    1.4110    2.8290 c3        1 MOL      0.388423
    104 C35        -0.3660    0.2930    1.7610 c         1 MOL      0.183342
    105 O15         0.5430   -0.1790    1.1090 o         1 MOL     -0.299140
    106 C36         0.9570    1.1010    3.8320 c3        1 MOL      0.335243
    107 C37         0.8060   -0.3110    4.4210 c3        1 MOL     -0.504173
    108 C38         1.1170    2.2300    4.9330 c3        1 MOL     -0.241989
    109 C39        -0.4360   -0.5310    5.2750 c3        1 MOL     -0.028573
    110 H46        -0.7990    3.5020    2.5120 hn        1 MOL      0.351003
    111 H47        -1.1050    1.4780    3.4620 h1        1 MOL      0.018945
    112 H48         1.8770    1.1350    3.2490 hc        1 MOL     -0.015238
    113 H49         1.5860   -0.6890    5.0740 hc        1 MOL      0.188207
    114 H50         0.7360   -1.0270    3.6030 hc        1 MOL      0.188207
    115 H51         1.9790    2.0380    5.5770 hc        1 MOL      0.059693
    116 H52         1.3060    3.1950    4.4720 hc        1 MOL      0.059693
    117 H53         0.1950    2.3260    5.5060 hc        1 MOL      0.059693
    118 H54        -0.4590    0.2280    6.0540 hc        1 MOL      0.007892
    119 H55        -1.3390   -0.4140    4.6700 hc        1 MOL      0.007892
    120 H56        -0.4480   -1.5050    5.7680 hc        1 MOL      0.007892
    121 N11        -1.6490   -0.1180    1.5520 n         1 MOL     -0.123800
    122 C40        -1.9850   -1.1030    0.5020 c3        1 MOL     -0.511956
    123 C41        -3.3890   -1.0850   -0.0530 c         1 MOL      0.942493
    124 O16        -3.6150   -1.6550   -1.0920 o         1 MOL     -0.563935
    125 C42        -1.7660   -2.4800    1.0220 c3        1 MOL      0.221083
    126 O17        -2.2820   -2.7570    2.2930 oh        1 MOL     -0.565903
    127 H57        -2.3810    0.3450    2.0630 hn        1 MOL      0.190840
    128 H58        -1.2910   -0.8990   -0.3060 h1        1 MOL      0.104845
    129 H59        -0.7060   -2.6370    1.2500 h1        1 MOL      0.033351
    130 H60        -2.1170   -3.2040    0.2970 h1        1 MOL      0.033351
    131 H61        -3.2180   -2.9230    2.1390 ho        1 MOL      0.391313
    132 N12        -4.3700   -0.3650    0.4980 n         1 MOL     -0.773370
    133 C43        -5.7430   -0.3560   -0.0100 c3        1 MOL      0.231451
    134 C44        -5.9080    0.4800   -1.3070 c         1 MOL      0.648494
    135 O18        -4.9350    1.1420   -1.7410 o         1 MOL     -0.576191
    136 C45        -6.5700    0.2490    1.1260 c3        1 MOL     -0.521289
    137 H62        -4.1330    0.2010    1.3050 hn        1 MOL      0.354801
    138 H63        -5.9270   -1.4120   -0.2240 h1        1 MOL      0.080537
    139 H64        -7.6550    0.1450    1.0230 hc        1 MOL      0.152446
    140 H65        -6.3390   -0.3550    2.0020 hc        1 MOL      0.152446
    141 H66        -6.2310    1.2580    1.3710 hc        1 MOL      0.152446
    142 N13        -7.0560    0.3940   -2.0130 n         1 MOL     -0.716357
    143 C46        -8.2310   -0.5280   -1.9440 c3        1 MOL      0.188406
    144 C47        -9.5820    0.1380   -2.5130 c         1 MOL      0.612828
    145 O19        -9.5850    0.4730   -3.6560 o         1 MOL     -0.559785
    146 C48        -7.8060   -1.7400   -2.8640 c3        1 MOL     -0.000086
    147 H67        -7.0550    1.0940   -2.7430 hn        1 MOL      0.349932
    148 H68        -8.4190   -0.9510   -0.9510 h1        1 MOL      0.037715
    149 H69        -6.7510   -1.9390   -2.6750 hc        1 MOL      0.012018
    150 H70        -8.4260   -2.6040   -2.6400 hc        1 MOL      0.012018
    151 H71        -8.0140   -1.4880   -3.9060 hc        1 MOL      0.012018
    152 N14       -10.6120    0.3210   -1.7710 n         1 MOL     -0.493518
    153 C49       -10.8350   -0.2620   -0.4580 c3        1 MOL     -0.002576
    154 C50       -10.4520    0.5620    0.7950 c         1 MOL      0.496726
    155 O20       -10.2150    0.0300    1.8810 o         1 MOL     -0.519629
    156 C51       -12.3760   -0.5610   -0.3940 c3        1 MOL      0.079555
    157 C52       -12.6660   -1.8000    0.4440 c3        1 MOL     -0.171499
    158 C53       -12.6150   -3.1310   -0.3000 c         1 MOL      0.655034
    159 O21       -11.5300   -3.5730   -0.7910 o         1 MOL     -0.642271
    160 O22       -13.6780   -3.8180   -0.3900 o         1 MOL     -0.642271
    161 H72       -11.4510    0.6740   -2.2180 hn        1 MOL      0.294379
    162 H73       -10.2400   -1.1780   -0.4420 h1        1 MOL      0.045993
    163 H74       -12.8090   -0.6150   -1.3930 hc        1 MOL      0.005781
    164 H75       -12.8850    0.2590    0.1010 hc        1 MOL      0.005781
    165 H76       -13.5680   -1.6540    1.0280 hc        1 MOL      0.032417
    166 H77       -11.9730   -1.8210    1.2800 hc        1 MOL      0.032417
    167 N15       -10.2690    1.8320    0.5570 n         1 MOL     -0.317026
    168 C54        -9.7700    2.7940    1.5360 c3        1 MOL     -0.079665
    169 H78        -8.7710    3.1200    1.2470 h1        1 MOL      0.070615
    170 H79       -10.4360    3.6560    1.5720 h1        1 MOL      0.070615
    171 H80        -9.7280    2.3240    2.5190 h1        1 MOL      0.070615
    172 H81       -10.6020    2.1500   -0.3380 hn        1 MOL      0.227385
    173 Ca1         2.2940    0.4980   -0.8740 Ca        1 MOL      1.700766
    174 O23        -0.0940    0.4260   -2.0340 oh        1 MOL     -0.818788
    175 H82        -0.8530    0.7780   -1.5710 ho        1 MOL      0.414731
    176 H83        -0.3590    0.4080   -2.9440 ho        1 MOL      0.414731
    177 O24         2.3310    1.8570   -2.9860 oh        1 MOL     -0.818788
    178 H84         1.7360    2.1320   -3.6800 ho        1 MOL      0.414731
    179 H85         3.1650    1.6930   -3.4280 ho        1 MOL      0.414731
    180 O25         1.3350   -2.4950   -1.1840 oh        1 MOL     -0.818788
    181 H86         0.4290   -2.7550   -1.0200 ho        1 MOL      0.414731
    182 H87         1.4250   -2.5360   -2.1420 ho        1 MOL      0.414731
@<TRIPOS>BOND
     1    1    2 1   
     2    1    4 1   
     3    1    5 1   
     4    1    6 1   
     5    2    3 2   
     6    2    7 1   
     7    7    8 1   
     8    7   15 1   
     9    8    9 1   
    10    8   11 1   
    11    8   16 1   
    12    9   10 2   
    13    9   19 1   
    14   11   12 1   
    15   11   17 1   
    16   11   18 1   
    17   12   13 1   
    18   12   14 1   
    19   19   20 1   
    20   19   28 1   
    21   20   21 1   
    22   20   23 1   
    23   20   29 1   
    24   21   22 2   
    25   21   41 1   
    26   23   24 1   
    27   23   30 1   
    28   23   31 1   
    29   24   25 1   
    30   24   32 1   
    31   24   33 1   
    32   25   26 1   
    33   25   34 1   
    34   25   35 1   
    35   26   27 1   
    36   26   36 1   
    37   26   37 1   
    38   27   38 1   
    39   27   39 1   
    40   27   40 1   
    41   41   42 1   
    42   41   49 1   
    43   42   43 1   
    44   42   45 1   
    45   42   50 1   
    46   43   44 2   
    47   43   53 1   
    48   45   46 1   
    49   45   51 1   
    50   45   52 1   
    51   46   47 1   
    52   46   48 1   
    53   53   54 1   
    54   53   57 1   
    55   54   55 1   
    56   54   58 1   
    57   54   59 1   
    58   55   56 2   
    59   55   60 1   
    60   60   61 1   
    61   60   68 1   
    62   61   62 1   
    63   61   64 1   
    64   61   69 1   
    65   62   63 2   
    66   62   74 1   
    67   64   65 1   
    68   64   70 1   
    69   64   71 1   
    70   65   66 1   
    71   65   67 2   
    72   66   72 1   
    73   66   73 1   
    74   74   75 1   
    75   74   78 1   
    76   75   76 1   
    77   75   79 1   
    78   75   80 1   
    79   76   77 2   
    80   76   81 1   
    81   81   82 1   
    82   81   93 1   
    83   82   83 1   
    84   82   85 1   
    85   82   94 1   
    86   83   84 2   
    87   83  102 1   
    88   85   86 1   
    89   85   95 1   
    90   85   96 1   
    91   86   87 ar  
    92   86   88 ar  
    93   87   89 ar  
    94   87   97 1   
    95   88   90 ar  
    96   88   98 1   
    97   89   91 ar  
    98   89   99 1   
    99   90   91 ar  
   100   90  100 1   
   101   91   92 1   
   102   92  101 1   
   103  102  103 1   
   104  102  110 1   
   105  103  104 1   
   106  103  106 1   
   107  103  111 1   
   108  104  105 2   
   109  104  121 1   
   110  106  107 1   
   111  106  108 1   
   112  106  112 1   
   113  107  109 1   
   114  107  113 1   
   115  107  114 1   
   116  108  115 1   
   117  108  116 1   
   118  108  117 1   
   119  109  118 1   
   120  109  119 1   
   121  109  120 1   
   122  121  122 1   
   123  121  127 1   
   124  122  123 1   
   125  122  125 1   
   126  122  128 1   
   127  123  124 2   
   128  123  132 1   
   129  125  126 1   
   130  125  129 1   
   131  125  130 1   
   132  126  131 1   
   133  132  133 1   
   134  132  137 1   
   135  133  134 1   
   136  133  136 1   
   137  133  138 1   
   138  134  135 2   
   139  134  142 1   
   140  136  139 1   
   141  136  140 1   
   142  136  141 1   
   143  142  143 1   
   144  142  147 1   
   145  143  144 1   
   146  143  146 1   
   147  143  148 1   
   148  144  145 2   
   149  144  152 1   
   150  146  149 1   
   151  146  150 1   
   152  146  151 1   
   153  152  153 1   
   154  152  161 1   
   155  153  154 1   
   156  153  156 1   
   157  153  162 1   
   158  154  155 2   
   159  154  167 1   
   160  156  157 1   
   161  156  163 1   
   162  156  164 1   
   163  157  158 1   
   164  157  165 1   
   165  157  166 1   
   166  158  159 1   
   167  158  160 1   
   168  167  168 1   
   169  167  172 1   
   170  168  169 1   
   171  168  170 1   
   172  168  171 1   
   173  174  175 1   
   174  174  176 1   
   175  177  178 1   
   176  177  179 1   
   177  180  181 1   
   178  180  182 1   
@<TRIPOS>SUBSTRUCTURE
     1 MOL         1 TEMP              0 ****  ****    0 ROOT
