@<TRIPOS>MOLECULE
MOL
  201   193     1     0     0
SMALL
resp


@<TRIPOS>ATOM
      1 C1          4.0560   -3.3170   -3.1160 c3        1 MOL     -0.543193
      2 C2          3.1280   -3.3750   -1.8730 c         1 MOL      1.041106
      3 O1          2.5980   -2.3350   -1.5110 o         1 MOL     -0.645026
      4 H1          3.8320   -2.4200   -3.6930 hc        1 MOL      0.118779
      5 H2          5.0960   -3.2890   -2.7920 hc        1 MOL      0.118779
      6 H3          3.8910   -4.1980   -3.7350 hc        1 MOL      0.118779
      7 N1          2.8500   -4.5070   -1.2430 n         1 MOL     -0.763734
      8 C3          1.8920   -4.7480   -0.1430 c3        1 MOL      0.071976
      9 C4          0.4170   -4.3510   -0.4340 c         1 MOL      0.830771
     10 O2         -0.4450   -4.3700    0.4770 o         1 MOL     -0.578946
     11 C5          2.4400   -4.0850    1.1740 c3        1 MOL     -0.602746
     12 C6          3.8600   -4.5540    1.4620 c         1 MOL      0.611342
     13 O3          4.1300   -5.7750    1.1640 o         1 MOL     -0.574117
     14 O4          4.7170   -3.8320    2.0230 o         1 MOL     -0.574117
     15 H4          3.3100   -5.3000   -1.6720 hn        1 MOL      0.334889
     16 H5          1.9970   -5.8170    0.0090 h1        1 MOL      0.027400
     17 H6          1.9060   -4.4580    2.0510 hc        1 MOL      0.195206
     18 H7          2.3420   -3.0020    1.1750 hc        1 MOL      0.195206
     19 N2          0.0600   -4.0770   -1.6860 n         1 MOL     -0.364437
     20 C7         -1.2610   -3.7520   -2.1640 c3        1 MOL     -0.601157
     21 C8         -2.2290   -4.9480   -2.2670 c         1 MOL      0.597096
     22 O5         -1.7110   -6.0450   -2.3290 o         1 MOL     -0.579248
     23 C9         -1.1990   -3.0400   -3.5290 c3        1 MOL      0.256117
     24 C10        -0.6440   -3.8880   -4.6620 c3        1 MOL      0.147710
     25 C11        -0.3210   -1.7500   -3.3230 c3        1 MOL     -0.156543
     26 C12        -0.6960   -3.1410   -6.0400 c3        1 MOL     -0.260377
     27 H8          0.6630   -4.3040   -2.4660 hn        1 MOL      0.253617
     28 H9         -1.6810   -2.9990   -1.5000 h1        1 MOL      0.242635
     29 H10        -2.1960   -2.6940   -3.8030 hc        1 MOL      0.062767
     30 H11        -1.3010   -4.7510   -4.7980 hc        1 MOL     -0.029882
     31 H12         0.3840   -4.1520   -4.4050 hc        1 MOL     -0.029882
     32 H13         0.7680   -1.8330   -3.3100 hc        1 MOL      0.043349
     33 H14        -0.4350   -1.1120   -4.1940 hc        1 MOL      0.043349
     34 H15        -0.6140   -1.1200   -2.4940 hc        1 MOL      0.043349
     35 H16        -1.5990   -2.5370   -6.0610 hc        1 MOL      0.050458
     36 H17         0.1890   -2.5140   -6.1470 hc        1 MOL      0.050458
     37 H18        -0.6660   -3.9250   -6.7940 hc        1 MOL      0.050458
     38 N3         -3.5690   -4.8400   -2.2130 n         1 MOL     -0.360225
     39 C13        -4.3260   -3.6590   -2.0890 c3        1 MOL      0.196031
     40 C14        -4.7880   -3.2780   -0.6080 c         1 MOL      0.390464
     41 O6         -5.1120   -2.1100   -0.3600 o         1 MOL     -0.466902
     42 C15        -5.5290   -3.7420   -3.0990 c3        1 MOL     -0.389110
     43 C16        -6.4450   -4.9720   -3.1010 c         1 MOL      0.782252
     44 O7         -6.5230   -5.7530   -2.1130 o         1 MOL     -0.730537
     45 O8         -7.1870   -5.1440   -4.1000 o         1 MOL     -0.730537
     46 H19        -4.1120   -5.6980   -2.2500 hn        1 MOL      0.233495
     47 H20        -3.7490   -2.8170   -2.4560 h1        1 MOL     -0.025529
     48 H21        -5.1410   -3.5470   -4.0940 hc        1 MOL      0.089273
     49 H22        -6.1900   -2.9030   -2.8740 hc        1 MOL      0.089273
     50 N4         -4.8680   -4.2400    0.3450 n         1 MOL     -0.288337
     51 C17        -5.3500   -4.0830    1.7330 c3        1 MOL     -0.073788
     52 C18        -6.7340   -3.6020    2.0900 c         1 MOL      0.586489
     53 O9         -7.6170   -4.3570    2.4350 o         1 MOL     -0.578283
     54 H23        -4.5410   -5.1800    0.1750 hn        1 MOL      0.279787
     55 H24        -4.7130   -3.3930    2.2790 h1        1 MOL      0.047523
     56 H25        -5.2530   -5.0670    2.1990 h1        1 MOL      0.047523
     57 N5         -6.9800   -2.2830    1.8230 n         1 MOL     -0.355738
     58 C19        -8.1580   -1.5880    2.1310 c3        1 MOL      0.054643
     59 C20        -8.4780   -0.5590    1.0250 c         1 MOL      0.336669
     60 O10        -9.3740    0.2690    1.1900 o         1 MOL     -0.519156
     61 C21        -8.0930   -0.9060    3.5040 c3        1 MOL     -0.254113
     62 C22        -7.0210    0.2250    3.6010 c         1 MOL      0.763235
     63 O11        -6.1630    0.3640    2.7230 o         1 MOL     -0.734376
     64 O12        -7.0820    0.9450    4.6320 o         1 MOL     -0.734376
     65 H26        -6.1830   -1.6900    1.6490 hn        1 MOL      0.259105
     66 H27        -8.9570   -2.3270    2.2040 h1        1 MOL      0.086177
     67 H28        -7.9910   -1.6340    4.3180 hc        1 MOL      0.042602
     68 H29        -9.0610   -0.4510    3.7120 hc        1 MOL      0.042602
     69 N6         -7.7480   -0.6080   -0.1080 n         1 MOL     -0.104909
     70 C23        -8.0460    0.0200   -1.3770 c3        1 MOL     -0.182589
     71 C24        -7.6570    1.4960   -1.4110 c         1 MOL      0.577026
     72 O13        -8.0150    2.1580   -2.3520 o         1 MOL     -0.565187
     73 H30        -6.9860   -1.2710   -0.1150 hn        1 MOL      0.146621
     74 H31        -9.1180   -0.0660   -1.5460 h1        1 MOL      0.093390
     75 H32        -7.4800   -0.6030   -2.0680 h1        1 MOL      0.093390
     76 N7         -6.9520    2.0460   -0.3880 n         1 MOL     -0.228620
     77 C25        -6.4040    3.3840   -0.2680 c3        1 MOL      0.159623
     78 C26        -5.2970    3.6360   -1.3270 c         1 MOL      0.490015
     79 O14        -5.1430    4.7460   -1.7860 o         1 MOL     -0.543840
     80 C27        -7.5520    4.4030   -0.0610 c3        1 MOL     -0.299319
     81 C28        -8.1800    4.1980    1.3810 c3        1 MOL      0.088182
     82 C29        -9.3540    5.1630    1.6600 c         1 MOL      0.550021
     83 N8         -9.8900    5.0460    2.8420 n         1 MOL     -0.708050
     84 O15        -9.9010    5.8590    0.8220 o         1 MOL     -0.558175
     85 H33        -6.6320    1.3940    0.3190 hn        1 MOL      0.169117
     86 H34        -5.7720    3.4400    0.6220 h1        1 MOL      0.066235
     87 H35        -8.3660    4.2020   -0.7620 hc        1 MOL      0.082635
     88 H36        -7.1940    5.4260   -0.1300 hc        1 MOL      0.082635
     89 H37        -7.3810    4.3560    2.1050 hc        1 MOL      0.008495
     90 H38        -8.5090    3.1870    1.5660 hc        1 MOL      0.008495
     91 H39        -9.4420    4.4120    3.4840 hn        1 MOL      0.325536
     92 H40       -10.5630    5.7400    3.1230 hn        1 MOL      0.325536
     93 N9         -4.5140    2.6720   -1.6320 n         1 MOL     -0.406066
     94 C30        -3.4180    2.6090   -2.5830 c3        1 MOL     -0.003146
     95 C31        -2.0920    2.2340   -1.9770 c         1 MOL      0.581349
     96 O16        -1.0950    2.5230   -2.4970 o         1 MOL     -0.539504
     97 C32        -3.7190    1.6200   -3.7060 c3        1 MOL      0.194523
     98 C33        -3.9500    0.1110   -3.2720 c3        1 MOL     -0.328439
     99 C34        -4.9050    2.0900   -4.5430 c3        1 MOL     -0.328439
    100 H41        -4.7390    1.8550   -1.0830 hn        1 MOL      0.224595
    101 H42        -3.2800    3.5770   -3.0780 h1        1 MOL      0.105285
    102 H43        -2.9530    1.6260   -4.4950 hc        1 MOL     -0.003188
    103 H44        -4.1870   -0.5160   -4.1320 hc        1 MOL      0.081708
    104 H45        -3.0110   -0.2320   -2.8460 hc        1 MOL      0.081708
    105 H46        -4.7640    0.1150   -2.5450 hc        1 MOL      0.081708
    106 H47        -4.8890    1.6610   -5.5420 hc        1 MOL      0.081708
    107 H48        -5.8390    1.9570   -3.9990 hc        1 MOL      0.081708
    108 H49        -4.8360    3.1800   -4.6020 hc        1 MOL      0.081708
    109 N10        -2.0800    1.5580   -0.7590 n         1 MOL     -0.522545
    110 C35        -0.9840    1.4830    0.1360 c3        1 MOL     -0.006853
    111 C36        -0.3430    2.8190    0.5610 c         1 MOL      0.665535
    112 O17        -1.0710    3.7590    0.8760 o         1 MOL     -0.497428
    113 C37        -1.6080    0.7820    1.3430 c3        1 MOL     -0.183565
    114 C38        -1.7530   -0.6920    1.3570 c         1 MOL      0.646460
    115 N11        -0.7710   -1.3500    0.8670 n         1 MOL     -0.777273
    116 O18        -2.7440   -1.2580    1.7120 o         1 MOL     -0.522791
    117 H50        -2.9530    1.3190   -0.3190 hn        1 MOL      0.281505
    118 H51        -0.2110    0.8740   -0.3350 h1        1 MOL      0.089599
    119 H52        -2.5210    1.2640    1.6890 hc        1 MOL      0.072981
    120 H53        -0.9700    1.0260    2.1900 hc        1 MOL      0.072981
    121 H54         0.0030   -0.8040    0.5060 hn        1 MOL      0.334053
    122 H55        -0.9490   -2.3460    0.8500 hn        1 MOL      0.334053
    123 N12         0.9700    2.7270    0.6610 n         1 MOL     -0.600213
    124 C39         1.8310    3.7500    1.1540 c3        1 MOL      0.339758
    125 C40         3.1110    3.8560    0.3260 c         1 MOL      0.542865
    126 O19         3.5600    2.8310   -0.2100 o         1 MOL     -0.565859
    127 C41         2.3380    3.5520    2.6370 c3        1 MOL     -0.075799
    128 C42         1.1680    3.6300    3.5700 ca        1 MOL      0.055148
    129 C43         0.5830    2.4670    4.1660 ca        1 MOL     -0.343756
    130 C44         0.5140    4.9030    3.7200 ca        1 MOL     -0.343756
    131 C45        -0.6120    2.5890    4.9340 ca        1 MOL     -0.011662
    132 C46        -0.5860    5.0290    4.5380 ca        1 MOL     -0.011662
    133 C47        -1.1040    3.8660    5.1890 ca        1 MOL      0.131089
    134 O20        -2.1850    3.9940    6.0570 oh        1 MOL     -0.470270
    135 H56         1.3060    1.8480    0.2790 hn        1 MOL      0.268249
    136 H57         1.2290    4.6560    1.1950 h1        1 MOL      0.012138
    137 H58         3.0110    4.3760    2.8520 hc        1 MOL      0.058401
    138 H59         2.9270    2.6410    2.7160 hc        1 MOL      0.058401
    139 H60         1.0040    1.5090    3.9120 ha        1 MOL      0.173794
    140 H61         0.9520    5.8360    3.3990 ha        1 MOL      0.173794
    141 H62        -1.0640    1.7730    5.4750 ha        1 MOL      0.103103
    142 H63        -1.0440    5.9880    4.7270 ha        1 MOL      0.103103
    143 H64        -2.3880    3.1000    6.3360 ho        1 MOL      0.356628
    144 N13         3.6760    5.0100    0.3090 n         1 MOL     -0.802462
    145 C48         4.9370    5.3320   -0.3980 c3        1 MOL      0.603056
    146 C49         6.1580    5.4660    0.5120 c         1 MOL      0.395665
    147 O21         6.0990    6.2350    1.4580 o         1 MOL     -0.562459
    148 C50         4.7490    6.6290   -1.1780 c3        1 MOL     -0.027736
    149 C51         5.8130    6.8160   -2.2750 c3        1 MOL     -0.088340
    150 C52         5.7330    8.2900   -2.6920 c         1 MOL      0.634536
    151 O22         5.4230    8.4550   -3.9410 o         1 MOL     -0.635996
    152 O23         5.8460    9.2630   -1.8900 o         1 MOL     -0.635996
    153 H65         3.1990    5.6930    0.8780 hn        1 MOL      0.316480
    154 H66         4.9840    4.5470   -1.1530 h1        1 MOL      0.007106
    155 H67         4.6960    7.5180   -0.5500 hc        1 MOL      0.009216
    156 H68         3.7990    6.5650   -1.7110 hc        1 MOL      0.009216
    157 H69         5.6870    6.1290   -3.1100 hc        1 MOL     -0.001423
    158 H70         6.7750    6.6730   -1.7810 hc        1 MOL     -0.001423
    159 N14         7.3030    4.8570    0.1830 n         1 MOL     -0.173490
    160 C53         7.5320    3.8370   -0.8200 c3        1 MOL     -0.643491
    161 C54         8.4090    4.2320   -2.0300 c         1 MOL      0.744331
    162 O24         9.1340    5.2180   -1.9550 o         1 MOL     -0.542857
    163 C55         8.1510    2.4870   -0.2940 c3        1 MOL      0.492186
    164 C56         9.6760    2.5730    0.1720 c3        1 MOL     -0.648486
    165 C57        10.1410    1.4400    1.1000 c         1 MOL      0.842719
    166 O25         9.7380    1.3640    2.3000 o         1 MOL     -0.710035
    167 O26        10.9870    0.6320    0.6250 o         1 MOL     -0.710035
    168 H71         8.0280    5.0480    0.8560 hn        1 MOL      0.261832
    169 H72         6.5510    3.6080   -1.2350 h1        1 MOL      0.086009
    170 H73         8.0830    1.7100   -1.0530 hc        1 MOL     -0.038734
    171 H74         7.5790    2.0870    0.5430 hc        1 MOL     -0.038734
    172 H75         9.8800    3.5380    0.6420 hc        1 MOL      0.122976
    173 H76        10.3460    2.7400   -0.6750 hc        1 MOL      0.122976
    174 N15         8.2080    3.5960   -3.1430 n         1 MOL     -0.340139
    175 C58         8.9560    3.6560   -4.4030 c3        1 MOL     -0.375182
    176 H77         8.7090    4.5790   -4.9270 h1        1 MOL      0.140548
    177 H78        10.0250    3.6330   -4.1920 h1        1 MOL      0.140548
    178 H79         8.6890    2.8020   -5.0260 h1        1 MOL      0.140548
    179 H80         7.4160    2.9750   -3.1940 hn        1 MOL      0.285551
    180 Ca1         6.6650   -5.6550    1.8070 Ca        1 MOL      1.678700
    181 O27         7.8390   -3.3700    2.8350 oh        1 MOL     -0.812221
    182 H81         8.0120   -2.4370    2.7490 ho        1 MOL      0.381168
    183 H82         8.6470   -3.7250    3.2200 ho        1 MOL      0.381168
    184 O28         9.1370   -5.8600    0.6240 oh        1 MOL     -0.812221
    185 H83         9.2030   -5.5020   -0.2590 ho        1 MOL      0.381168
    186 H84        10.0170   -5.7910    0.9810 ho        1 MOL      0.381168
    187 O29         6.7840   -7.2630   -0.4750 oh        1 MOL     -0.812221
    188 H85         7.4080   -7.9500   -0.6900 ho        1 MOL      0.381168
    189 H86         6.1130   -7.3250   -1.1570 ho        1 MOL      0.381168
    190 O30         5.7920   -8.1970    2.0630 oh        1 MOL     -0.812221
    191 H87         5.2420   -8.6060    2.7270 ho        1 MOL      0.381168
    192 H88         6.1460   -8.9260    1.5610 ho        1 MOL      0.381168
    193 O31         6.8060   -4.0080   -0.1280 oh        1 MOL     -0.812221
    194 H89         6.9390   -3.0800    0.0940 ho        1 MOL      0.381168
    195 H90         6.9690   -4.0490   -1.0760 ho        1 MOL      0.381168
    196 O32         6.0150   -5.5560    4.3000 oh        1 MOL     -0.812221
    197 H91         5.2650   -6.0710    4.5860 ho        1 MOL      0.381168
    198 H92         6.4300   -5.2690    5.1090 ho        1 MOL      0.381168
    199 O33         8.6850   -6.6630    3.4080 oh        1 MOL     -0.812221
    200 H93         9.1130   -7.4570    3.0870 ho        1 MOL      0.381168
    201 H94         8.5660   -6.8070    4.3400 ho        1 MOL      0.381168
@<TRIPOS>BOND
     1    1    2 1   
     2    1    4 1   
     3    1    5 1   
     4    1    6 1   
     5    2    3 2   
     6    2    7 1   
     7    7    8 1   
     8    7   15 1   
     9    8    9 1   
    10    8   11 1   
    11    8   16 1   
    12    9   10 2   
    13    9   19 1   
    14   11   12 1   
    15   11   17 1   
    16   11   18 1   
    17   12   13 1   
    18   12   14 1   
    19   19   20 1   
    20   19   27 1   
    21   20   21 1   
    22   20   23 1   
    23   20   28 1   
    24   21   22 2   
    25   21   38 1   
    26   23   24 1   
    27   23   25 1   
    28   23   29 1   
    29   24   26 1   
    30   24   30 1   
    31   24   31 1   
    32   25   32 1   
    33   25   33 1   
    34   25   34 1   
    35   26   35 1   
    36   26   36 1   
    37   26   37 1   
    38   38   39 1   
    39   38   46 1   
    40   39   40 1   
    41   39   42 1   
    42   39   47 1   
    43   40   41 2   
    44   40   50 1   
    45   42   43 1   
    46   42   48 1   
    47   42   49 1   
    48   43   44 1   
    49   43   45 1   
    50   50   51 1   
    51   50   54 1   
    52   51   52 1   
    53   51   55 1   
    54   51   56 1   
    55   52   53 2   
    56   52   57 1   
    57   57   58 1   
    58   57   65 1   
    59   58   59 1   
    60   58   61 1   
    61   58   66 1   
    62   59   60 2   
    63   59   69 1   
    64   61   62 1   
    65   61   67 1   
    66   61   68 1   
    67   62   63 1   
    68   62   64 1   
    69   69   70 1   
    70   69   73 1   
    71   70   71 1   
    72   70   74 1   
    73   70   75 1   
    74   71   72 2   
    75   71   76 1   
    76   76   77 1   
    77   76   85 1   
    78   77   78 1   
    79   77   80 1   
    80   77   86 1   
    81   78   79 2   
    82   78   93 1   
    83   80   81 1   
    84   80   87 1   
    85   80   88 1   
    86   81   82 1   
    87   81   89 1   
    88   81   90 1   
    89   82   83 1   
    90   82   84 2   
    91   83   91 1   
    92   83   92 1   
    93   93   94 1   
    94   93  100 1   
    95   94   95 1   
    96   94   97 1   
    97   94  101 1   
    98   95   96 2   
    99   95  109 1   
   100   97   98 1   
   101   97   99 1   
   102   97  102 1   
   103   98  103 1   
   104   98  104 1   
   105   98  105 1   
   106   99  106 1   
   107   99  107 1   
   108   99  108 1   
   109  109  110 1   
   110  109  117 1   
   111  110  111 1   
   112  110  113 1   
   113  110  118 1   
   114  111  112 2   
   115  111  123 1   
   116  113  114 1   
   117  113  119 1   
   118  113  120 1   
   119  114  115 1   
   120  114  116 2   
   121  115  121 1   
   122  115  122 1   
   123  123  124 1   
   124  123  135 1   
   125  124  125 1   
   126  124  127 1   
   127  124  136 1   
   128  125  126 2   
   129  125  144 1   
   130  127  128 1   
   131  127  137 1   
   132  127  138 1   
   133  128  129 ar  
   134  128  130 ar  
   135  129  131 ar  
   136  129  139 1   
   137  130  132 ar  
   138  130  140 1   
   139  131  133 ar  
   140  131  141 1   
   141  132  133 ar  
   142  132  142 1   
   143  133  134 1   
   144  134  143 1   
   145  144  145 1   
   146  144  153 1   
   147  145  146 1   
   148  145  148 1   
   149  145  154 1   
   150  146  147 2   
   151  146  159 1   
   152  148  149 1   
   153  148  155 1   
   154  148  156 1   
   155  149  150 1   
   156  149  157 1   
   157  149  158 1   
   158  150  151 1   
   159  150  152 1   
   160  159  160 1   
   161  159  168 1   
   162  160  161 1   
   163  160  163 1   
   164  160  169 1   
   165  161  162 2   
   166  161  174 1   
   167  163  164 1   
   168  163  170 1   
   169  163  171 1   
   170  164  165 1   
   171  164  172 1   
   172  164  173 1   
   173  165  166 1   
   174  165  167 1   
   175  174  175 1   
   176  174  179 1   
   177  175  176 1   
   178  175  177 1   
   179  175  178 1   
   180  181  182 1   
   181  181  183 1   
   182  184  185 1   
   183  184  186 1   
   184  187  188 1   
   185  187  189 1   
   186  190  191 1   
   187  190  192 1   
   188  193  194 1   
   189  193  195 1   
   190  196  197 1   
   191  196  198 1   
   192  199  200 1   
   193  199  201 1   
@<TRIPOS>SUBSTRUCTURE
     1 MOL         1 TEMP              0 ****  ****    0 ROOT
