@<TRIPOS>MOLECULE
MOL
  178   175     1     0     0
SMALL
resp


@<TRIPOS>ATOM
      1 C1         -4.4680   -2.5960   -2.7610 c3        1 MOL     -0.356672
      2 C2         -5.6950   -1.7010   -2.6730 c         1 MOL      0.600093
      3 O1         -5.5810   -0.4720   -2.9060 o         1 MOL     -0.560235
      4 H1         -4.7550   -3.6270   -2.5570 hc        1 MOL      0.090647
      5 H2         -4.0400   -2.5290   -3.7610 hc        1 MOL      0.090647
      6 H3         -3.7290   -2.2730   -2.0260 hc        1 MOL      0.090647
      7 N1         -6.8740   -2.2250   -2.3070 n         1 MOL     -0.446626
      8 C3         -8.1270   -1.5030   -2.4710 c3        1 MOL      0.206394
      9 C4         -8.2420   -0.4760   -1.3510 c         1 MOL      0.430394
     10 O2         -8.6880   -0.8250   -0.2220 o         1 MOL     -0.510780
     11 C5         -9.2840   -2.4750   -2.6280 c3        1 MOL     -0.338684
     12 C6        -10.6200   -1.7950   -2.8820 c         1 MOL      0.787481
     13 O3        -10.7780   -0.5280   -2.8150 o         1 MOL     -0.745722
     14 O4        -11.5400   -2.5540   -3.2910 o         1 MOL     -0.745722
     15 H4         -6.7650   -3.1800   -1.9980 hn        1 MOL      0.270528
     16 H5         -7.9790   -0.9230   -3.3810 h1        1 MOL      0.018625
     17 H6         -9.3930   -2.9320   -1.6340 hc        1 MOL      0.057296
     18 H7         -9.0000   -3.1900   -3.3990 hc        1 MOL      0.057296
     19 N2         -7.8360    0.8020   -1.5290 n         1 MOL     -0.372772
     20 C7         -7.5430    1.8020   -0.4640 c3        1 MOL      0.332344
     21 C8         -6.1910    1.4540    0.3260 c         1 MOL      0.487697
     22 O5         -5.3050    2.2730    0.5320 o         1 MOL     -0.499843
     23 C9         -7.4940    3.1660   -1.0740 c3        1 MOL     -0.372178
     24 H8         -7.4990    1.0470   -2.4490 hn        1 MOL      0.242733
     25 H9         -8.3780    1.7330    0.2240 h1        1 MOL      0.009224
     26 H10        -7.1620    2.9490   -2.0920 hc        1 MOL      0.082583
     27 H11        -8.5170    3.5470   -1.1460 hc        1 MOL      0.082583
     28 H12        -6.8500    3.8680   -0.5550 hc        1 MOL      0.082583
     29 N3         -6.1090    0.1840    0.8220 n         1 MOL     -0.584102
     30 C10        -4.9350   -0.4060    1.4090 c3        1 MOL      0.325499
     31 C11        -4.6400   -0.0980    2.8880 c         1 MOL      0.482712
     32 O6         -5.5610    0.1130    3.6870 o         1 MOL     -0.517357
     33 C12        -5.0180   -1.9110    1.0570 c3        1 MOL      0.210297
     34 C13        -3.6440   -2.6520    1.1950 c         1 MOL      0.508531
     35 O7         -2.7990   -2.6400    0.2480 o         1 MOL     -0.704520
     36 O8         -3.3080   -3.2040    2.2730 o         1 MOL     -0.704520
     37 H13        -6.8980   -0.3820    0.5440 hn        1 MOL      0.213685
     38 H14        -4.0600    0.0270    0.9040 h1        1 MOL     -0.021667
     39 H15        -5.4250   -2.0860    0.0620 hc        1 MOL     -0.080963
     40 H16        -5.6200   -2.3510    1.8510 hc        1 MOL     -0.080963
     41 N4         -3.3760   -0.1250    3.2700 n         1 MOL     -0.384618
     42 C14        -2.8060    0.2010    4.5340 c3        1 MOL     -0.005731
     43 C15        -2.4110    1.6190    4.7340 c         1 MOL      0.585839
     44 O9         -2.9090    2.2080    5.6930 o         1 MOL     -0.565023
     45 H17        -2.7240   -0.6240    2.6740 hn        1 MOL      0.281455
     46 H18        -1.9320   -0.4440    4.6400 h1        1 MOL      0.041379
     47 H19        -3.5200   -0.0930    5.3090 h1        1 MOL      0.041379
     48 N5         -1.6670    2.1640    3.8400 n         1 MOL     -0.464610
     49 C16        -1.1810    3.5570    3.7210 c3        1 MOL      0.258177
     50 C17        -1.2190    4.0050    2.2350 c         1 MOL      0.547969
     51 O10        -1.7200    3.1970    1.4460 o         1 MOL     -0.467035
     52 C18         0.2300    3.5250    4.3060 c3        1 MOL     -0.588964
     53 C19         0.1320    3.2280    5.8270 c         1 MOL      0.771373
     54 N6         -0.3910    4.2150    6.5640 n         1 MOL     -0.856166
     55 O11         0.4790    2.1410    6.2860 o         1 MOL     -0.553830
     56 H20        -1.3510    1.4940    3.1620 hn        1 MOL      0.274181
     57 H21        -1.7340    4.2170    4.3820 h1        1 MOL      0.023024
     58 H22         0.7130    4.4920    4.1800 hc        1 MOL      0.169271
     59 H23         0.8350    2.7780    3.8000 hc        1 MOL      0.169271
     60 H24        -0.6390    5.1260    6.2180 hn        1 MOL      0.375694
     61 H25        -0.8570    4.0240    7.4450 hn        1 MOL      0.375694
     62 N7         -0.8160    5.2360    1.8460 n         1 MOL     -0.580715
     63 C20        -0.7700    5.7110    0.4070 c3        1 MOL      0.037109
     64 C21         0.5070    5.3290   -0.2900 c         1 MOL      0.534851
     65 O12         1.1200    4.2630   -0.0320 o         1 MOL     -0.440824
     66 H26        -0.3870    5.8830    2.4930 hn        1 MOL      0.299335
     67 H27        -0.9380    6.7850    0.3730 h1        1 MOL      0.080436
     68 H28        -1.5860    5.2890   -0.1900 h1        1 MOL      0.080436
     69 N8          1.0160    6.2330   -1.1780 n         1 MOL     -0.513321
     70 C22         2.3850    6.0420   -1.7680 c3        1 MOL      0.037792
     71 C23         2.6920    4.7530   -2.4970 c         1 MOL      0.399287
     72 O13         3.9050    4.3950   -2.5750 o         1 MOL     -0.556421
     73 C24         2.6230    7.1720   -2.7970 c3        1 MOL      0.495781
     74 C25         1.9750    6.8390   -4.1300 c3        1 MOL     -0.406530
     75 O14         2.1990    8.4440   -2.3240 oh        1 MOL     -0.665246
     76 H29         0.4370    7.0400   -1.3600 hn        1 MOL      0.251351
     77 H30         3.1640    6.1860   -1.0220 h1        1 MOL      0.094646
     78 H31         3.6950    7.1800   -3.0040 h1        1 MOL     -0.020473
     79 H32         1.4130    8.7190   -2.8080 ho        1 MOL      0.404424
     80 H33         0.9800    6.4010   -4.0660 hc        1 MOL      0.093641
     81 H34         2.0190    7.7120   -4.7810 hc        1 MOL      0.093641
     82 H35         2.5920    6.1040   -4.6350 hc        1 MOL      0.093641
     83 N9          1.7070    3.9920   -2.9960 n         1 MOL     -0.287398
     84 C26         1.9280    2.5600   -3.3780 c3        1 MOL      0.101086
     85 C27         1.2830    1.7100   -2.3100 c         1 MOL      0.339682
     86 O15         0.0450    1.7810   -2.0040 o         1 MOL     -0.466692
     87 C28         1.2790    2.2550   -4.7690 c3        1 MOL      0.163482
     88 C29         1.8860    3.0680   -5.9660 c3        1 MOL     -0.029758
     89 C30         1.3550    0.7460   -5.0670 c3        1 MOL     -0.157055
     90 C31         3.3770    2.7300   -6.1450 c3        1 MOL     -0.074309
     91 H36         0.7670    4.2820   -2.7820 hn        1 MOL      0.207515
     92 H37         2.9690    2.2940   -3.5140 h1        1 MOL      0.078442
     93 H38         0.2230    2.4800   -4.6750 hc        1 MOL     -0.005348
     94 H39         1.8300    4.1370   -5.7510 hc        1 MOL     -0.001775
     95 H40         1.3030    2.8230   -6.8510 hc        1 MOL     -0.001775
     96 H41         0.9340    0.6040   -6.0640 hc        1 MOL      0.037162
     97 H42         2.3560    0.3580   -4.8680 hc        1 MOL      0.037162
     98 H43         0.6960    0.1720   -4.4140 hc        1 MOL      0.037162
     99 H44         3.8840    3.1420   -5.2790 hc        1 MOL      0.012787
    100 H45         3.5900    1.6670   -6.2570 hc        1 MOL      0.012787
    101 H46         3.7730    3.2970   -6.9880 hc        1 MOL      0.012787
    102 N10         2.1160    0.8480   -1.8590 n         1 MOL     -0.345166
    103 C32         1.8250   -0.1340   -0.8180 c3        1 MOL      0.205552
    104 C33         3.1450   -0.4470   -0.0600 c         1 MOL      0.331889
    105 O16         3.3960   -1.4920    0.4260 o         1 MOL     -0.391497
    106 C34         1.3650   -1.4610   -1.5220 c3        1 MOL     -0.340541
    107 C35         0.6110   -2.4870   -0.5630 c         1 MOL      0.769775
    108 O17         0.1770   -2.0960    0.5060 o         1 MOL     -0.729268
    109 O18         0.2820   -3.6820   -0.8860 o         1 MOL     -0.729268
    110 H47         3.0640    0.8920   -2.2180 hn        1 MOL      0.236400
    111 H48         1.1050    0.2370   -0.0810 h1        1 MOL      0.096730
    112 H49         2.1920   -1.9640   -2.0070 hc        1 MOL      0.106145
    113 H50         0.6370   -1.0950   -2.2540 hc        1 MOL      0.106145
    114 N11         4.1410    0.4450   -0.1470 n         1 MOL     -0.315285
    115 C36         5.5030    0.3580    0.4010 c3        1 MOL      0.117792
    116 C37         6.2950   -0.8820   -0.1250 c         1 MOL      0.369143
    117 O19         6.4760   -0.7970   -1.2920 o         1 MOL     -0.525040
    118 C38         6.2430    1.7140    0.3440 c3        1 MOL     -0.151482
    119 C39         5.4640    2.7570    1.2310 ca        1 MOL      0.029232
    120 C40         4.7260    3.8000    0.6820 ca        1 MOL     -0.111133
    121 C41         5.4370    2.5730    2.6540 ca        1 MOL     -0.111133
    122 C42         3.9870    4.7370    1.4270 ca        1 MOL     -0.143538
    123 C43         4.5490    3.4340    3.4130 ca        1 MOL     -0.143538
    124 C44         3.8600    4.4940    2.8090 ca        1 MOL     -0.104759
    125 H51         3.9670    1.3310   -0.5940 hn        1 MOL      0.233740
    126 H52         5.3340    0.1890    1.4650 h1        1 MOL      0.038024
    127 H53         6.2970    2.0880   -0.6860 hc        1 MOL      0.083781
    128 H54         7.2520    1.6460    0.7450 hc        1 MOL      0.083781
    129 H55         4.8380    3.9940   -0.3740 ha        1 MOL      0.090478
    130 H56         5.9840    1.7630    3.1180 ha        1 MOL      0.090478
    131 H57         3.4660    5.6020    1.0480 ha        1 MOL      0.117717
    132 H58         4.4600    3.3640    4.4940 ha        1 MOL      0.117717
    133 H59         3.1760    5.0850    3.4000 ha        1 MOL      0.092361
    134 N12         6.7780   -1.8750    0.6810 n         1 MOL     -0.118280
    135 C45         7.5400   -3.0160    0.1440 c3        1 MOL      0.025955
    136 C46         6.6900   -3.9480   -0.6870 c         1 MOL      0.262150
    137 O20         7.3130   -4.7740   -1.3730 o         1 MOL     -0.497066
    138 C47         8.0080   -3.7000    1.4130 c3        1 MOL     -0.112402
    139 C48         6.9290   -3.4160    2.4610 c3        1 MOL     -0.037065
    140 C49         6.6840   -1.9290    2.1240 c3        1 MOL     -0.142123
    141 H60         8.3880   -2.5710   -0.3710 h1        1 MOL      0.093741
    142 H61         8.0690   -4.7570    1.1700 hc        1 MOL      0.054391
    143 H62         8.9960   -3.2840    1.6330 hc        1 MOL      0.054391
    144 H63         6.0600   -3.9880    2.1420 hc        1 MOL      0.042073
    145 H64         7.3180   -3.5270    3.4790 hc        1 MOL      0.042073
    146 H65         5.7060   -1.6570    2.5050 h1        1 MOL      0.077872
    147 H66         7.4180   -1.3320    2.6670 h1        1 MOL      0.077872
    148 N13         5.3710   -3.9230   -0.6410 n         1 MOL     -0.023480
    149 C50         4.6940   -5.1220   -1.1030 c3        1 MOL     -0.268559
    150 C51         4.5730   -5.1480   -2.6350 c         1 MOL      0.441319
    151 O21         4.8680   -6.2020   -3.2450 o         1 MOL     -0.533465
    152 C52         3.3710   -5.4730   -0.4190 c3        1 MOL      0.568211
    153 C53         3.2310   -5.1700    1.1060 c3        1 MOL     -0.211211
    154 C54         1.8210   -5.1680    1.6080 c         1 MOL      0.701536
    155 O22         0.9810   -6.0440    1.1800 o         1 MOL     -0.772263
    156 O23         1.4350   -4.2510    2.3720 o         1 MOL     -0.772263
    157 H67         4.8410   -3.1570   -0.2510 hn        1 MOL      0.211098
    158 H68         5.2400   -5.9320   -0.6390 h1        1 MOL      0.117494
    159 H69         3.1670   -6.5310   -0.5540 hc        1 MOL     -0.132419
    160 H70         2.6380   -4.8580   -0.9610 hc        1 MOL     -0.132419
    161 H71         3.6160   -4.1500    1.1850 hc        1 MOL      0.006179
    162 H72         3.8600   -5.9170    1.5950 hc        1 MOL      0.006179
    163 N14         4.0730   -4.0690   -3.2540 n         1 MOL     -0.163882
    164 C55         3.7190   -4.0310   -4.6360 c3        1 MOL     -0.253001
    165 H73         4.4370   -3.4150   -5.1780 h1        1 MOL      0.099974
    166 H74         3.7290   -5.0420   -5.0430 h1        1 MOL      0.099974
    167 H75         2.7220   -3.6040   -4.7440 h1        1 MOL      0.099974
    168 H76         3.9870   -3.1900   -2.7510 hn        1 MOL      0.182317
    169 Ca1        -1.0120   -4.0110    1.6350 Ca        1 MOL      1.801129
    170 O24        -0.8340   -2.5880    3.9550 oh        1 MOL     -0.830532
    171 H77        -0.9700   -2.8020    4.8740 ho        1 MOL      0.407609
    172 H78        -0.2600   -1.8170    3.9770 ho        1 MOL      0.407609
    173 O25        -1.4780   -6.3290    3.0140 oh        1 MOL     -0.830532
    174 H79        -2.2620   -6.8760    2.9910 ho        1 MOL      0.407609
    175 H80        -0.7510   -6.9550    2.9600 ho        1 MOL      0.407609
    176 O26        -2.3710   -5.5740   -0.2110 oh        1 MOL     -0.830532
    177 H81        -1.8910   -5.4420   -1.0320 ho        1 MOL      0.407609
    178 H82        -3.2190   -5.9250   -0.4870 ho        1 MOL      0.407609
@<TRIPOS>BOND
     1    1    2 1   
     2    1    4 1   
     3    1    5 1   
     4    1    6 1   
     5    2    3 2   
     6    2    7 1   
     7    7    8 1   
     8    7   15 1   
     9    8    9 1   
    10    8   11 1   
    11    8   16 1   
    12    9   10 2   
    13    9   19 1   
    14   11   12 1   
    15   11   17 1   
    16   11   18 1   
    17   12   13 1   
    18   12   14 1   
    19   19   20 1   
    20   19   24 1   
    21   20   21 1   
    22   20   23 1   
    23   20   25 1   
    24   21   22 2   
    25   21   29 1   
    26   23   26 1   
    27   23   27 1   
    28   23   28 1   
    29   29   30 1   
    30   29   37 1   
    31   30   31 1   
    32   30   33 1   
    33   30   38 1   
    34   31   32 2   
    35   31   41 1   
    36   33   34 1   
    37   33   39 1   
    38   33   40 1   
    39   34   35 1   
    40   34   36 1   
    41   41   42 1   
    42   41   45 1   
    43   42   43 1   
    44   42   46 1   
    45   42   47 1   
    46   43   44 2   
    47   43   48 1   
    48   48   49 1   
    49   48   56 1   
    50   49   50 1   
    51   49   52 1   
    52   49   57 1   
    53   50   51 2   
    54   50   62 1   
    55   52   53 1   
    56   52   58 1   
    57   52   59 1   
    58   53   54 1   
    59   53   55 2   
    60   54   60 1   
    61   54   61 1   
    62   62   63 1   
    63   62   66 1   
    64   63   64 1   
    65   63   67 1   
    66   63   68 1   
    67   64   65 2   
    68   64   69 1   
    69   69   70 1   
    70   69   76 1   
    71   70   71 1   
    72   70   73 1   
    73   70   77 1   
    74   71   72 2   
    75   71   83 1   
    76   73   74 1   
    77   73   75 1   
    78   73   78 1   
    79   74   80 1   
    80   74   81 1   
    81   74   82 1   
    82   75   79 1   
    83   83   84 1   
    84   83   91 1   
    85   84   85 1   
    86   84   87 1   
    87   84   92 1   
    88   85   86 2   
    89   85  102 1   
    90   87   88 1   
    91   87   89 1   
    92   87   93 1   
    93   88   90 1   
    94   88   94 1   
    95   88   95 1   
    96   89   96 1   
    97   89   97 1   
    98   89   98 1   
    99   90   99 1   
   100   90  100 1   
   101   90  101 1   
   102  102  103 1   
   103  102  110 1   
   104  103  104 1   
   105  103  106 1   
   106  103  111 1   
   107  104  105 2   
   108  104  114 1   
   109  106  107 1   
   110  106  112 1   
   111  106  113 1   
   112  107  108 1   
   113  107  109 1   
   114  114  115 1   
   115  114  125 1   
   116  115  116 1   
   117  115  118 1   
   118  115  126 1   
   119  116  117 2   
   120  116  134 1   
   121  118  119 1   
   122  118  127 1   
   123  118  128 1   
   124  119  120 ar  
   125  119  121 ar  
   126  120  122 ar  
   127  120  129 1   
   128  121  123 ar  
   129  121  130 1   
   130  122  124 ar  
   131  122  131 1   
   132  123  124 ar  
   133  123  132 1   
   134  124  133 1   
   135  134  135 1   
   136  134  140 1   
   137  135  136 1   
   138  135  138 1   
   139  135  141 1   
   140  136  137 2   
   141  136  148 1   
   142  138  139 1   
   143  138  142 1   
   144  138  143 1   
   145  139  140 1   
   146  139  144 1   
   147  139  145 1   
   148  140  146 1   
   149  140  147 1   
   150  148  149 1   
   151  148  157 1   
   152  149  150 1   
   153  149  152 1   
   154  149  158 1   
   155  150  151 2   
   156  150  163 1   
   157  152  153 1   
   158  152  159 1   
   159  152  160 1   
   160  153  154 1   
   161  153  161 1   
   162  153  162 1   
   163  154  155 1   
   164  154  156 1   
   165  163  164 1   
   166  163  168 1   
   167  164  165 1   
   168  164  166 1   
   169  164  167 1   
   170  170  171 1   
   171  170  172 1   
   172  173  174 1   
   173  173  175 1   
   174  176  177 1   
   175  176  178 1   
@<TRIPOS>SUBSTRUCTURE
     1 MOL         1 TEMP              0 ****  ****    0 ROOT
