@<TRIPOS>MOLECULE
MOL
  185   180     1     0     0
SMALL
resp


@<TRIPOS>ATOM
      1 C1         -4.3370    1.7230   -2.7820 c3        1 MOL     -0.342543
      2 C2         -5.2670    1.3910   -1.5760 c         1 MOL      0.525279
      3 O1         -4.8740    0.7780   -0.5540 o         1 MOL     -0.398385
      4 H1         -4.3090    0.8730   -3.4640 hc        1 MOL      0.098492
      5 H2         -4.7210    2.5970   -3.3090 hc        1 MOL      0.098492
      6 H3         -3.3300    1.9300   -2.4190 hc        1 MOL      0.098492
      7 N1         -6.5210    1.9390   -1.6920 n         1 MOL     -0.523278
      8 C3         -7.3340    2.1330   -0.5310 c3        1 MOL      0.075068
      9 C4         -7.6630    0.9700    0.3910 c         1 MOL      0.416636
     10 O2         -7.9170    1.0970    1.5850 o         1 MOL     -0.478215
     11 C5         -6.6730    3.2800    0.3210 c3        1 MOL     -0.316153
     12 C6         -6.3550    4.6300   -0.4750 c         1 MOL      0.731902
     13 O3         -5.6580    5.5460    0.0260 o         1 MOL     -0.643271
     14 O4         -6.9190    4.9460   -1.5100 o         1 MOL     -0.643271
     15 H4         -6.7380    2.2820   -2.6160 hn        1 MOL      0.320630
     16 H5         -8.2730    2.4690   -0.9760 h1        1 MOL      0.073008
     17 H6         -5.7440    2.9290    0.7640 hc        1 MOL      0.095908
     18 H7         -7.2090    3.5010    1.2390 hc        1 MOL      0.095908
     19 N2         -7.6840   -0.2670   -0.2160 n         1 MOL     -0.269312
     20 C7         -8.0340   -1.5360    0.4380 c3        1 MOL     -0.001722
     21 C8         -6.9230   -2.6650    0.2830 c         1 MOL      0.587415
     22 O5         -6.9450   -3.5880    1.0380 o         1 MOL     -0.543058
     23 C9         -9.4470   -1.9480   -0.0250 c3        1 MOL     -0.129450
     24 C10       -10.4680   -0.8740    0.2360 c3        1 MOL     -0.045959
     25 C11       -11.9090   -1.3110    0.0730 c3        1 MOL      0.134459
     26 C12       -13.0010   -0.2320    0.2910 c3        1 MOL      0.013070
     27 N3        -14.3610   -0.7920    0.3450 n4        1 MOL     -0.234998
     28 H8         -7.6080   -0.3460   -1.2140 hn        1 MOL      0.199670
     29 H9         -8.0570   -1.3920    1.5290 h1        1 MOL      0.122102
     30 H10        -9.7440   -2.8820    0.4500 hc        1 MOL      0.041641
     31 H11        -9.4450   -2.2610   -1.0630 hc        1 MOL      0.041641
     32 H12       -10.3610   -0.0140   -0.4220 hc        1 MOL      0.027489
     33 H13       -10.3280   -0.5180    1.2610 hc        1 MOL      0.027489
     34 H14       -12.1050   -2.1320    0.7600 hc        1 MOL     -0.016651
     35 H15       -12.1240   -1.7470   -0.9010 hc        1 MOL     -0.016651
     36 H16       -12.8310    0.4640   -0.5220 hx        1 MOL      0.072800
     37 H17       -12.7470    0.3190    1.1870 hx        1 MOL      0.072800
     38 H18       -14.3930   -1.5250    1.0460 hn        1 MOL      0.239716
     39 H19       -14.9370   -0.0800    0.7870 hn        1 MOL      0.239716
     40 H20       -14.7890   -1.1690   -0.4860 hn        1 MOL      0.239716
     41 N4         -5.8620   -2.3540   -0.5280 n         1 MOL     -0.495365
     42 C13        -4.6140   -3.0190   -0.2650 c3        1 MOL     -0.025191
     43 C14        -4.1560   -2.7840    1.1800 c         1 MOL      0.579756
     44 O6         -4.2660   -1.6310    1.6470 o         1 MOL     -0.489930
     45 C15        -3.6580   -2.6460   -1.3590 c3        1 MOL      0.047233
     46 C16        -2.3780   -3.4530   -1.2530 c         1 MOL      0.653182
     47 O7         -1.3730   -2.8360   -0.9210 o         1 MOL     -0.747758
     48 O8         -2.2830   -4.6540   -1.5610 o         1 MOL     -0.747758
     49 H21        -5.8280   -1.5350   -1.1140 hn        1 MOL      0.262776
     50 H22        -4.8320   -4.0740   -0.4580 h1        1 MOL      0.055321
     51 H23        -3.5040   -1.5700   -1.2800 hc        1 MOL      0.003106
     52 H24        -4.1300   -2.8500   -2.3230 hc        1 MOL      0.003106
     53 N5         -3.5530   -3.8410    1.8220 n         1 MOL     -0.395238
     54 C17        -2.8410   -3.6890    3.1590 c3        1 MOL     -0.092553
     55 C18        -1.5250   -2.8960    3.2120 c         1 MOL      0.446044
     56 O9         -0.9250   -2.9950    4.3010 o         1 MOL     -0.537797
     57 H25        -3.7240   -4.7510    1.4190 hn        1 MOL      0.264645
     58 H26        -2.6590   -4.6570    3.6300 h1        1 MOL      0.108500
     59 H27        -3.6450   -3.2520    3.7620 h1        1 MOL      0.108500
     60 N6         -1.0190   -2.2550    2.1370 n         1 MOL     -0.298260
     61 C19         0.0030   -1.2140    2.3720 c3        1 MOL      0.068102
     62 C20        -0.4410    0.1810    2.1030 c         1 MOL      0.557409
     63 O10         0.3220    1.1200    2.2790 o         1 MOL     -0.552460
     64 C21         1.3470   -1.5770    1.6040 c3        1 MOL     -0.597223
     65 C22         1.6980   -3.1000    1.7450 c         1 MOL      0.928698
     66 N7          2.3530   -3.4810    2.7830 n         1 MOL     -0.726547
     67 O11         1.3330   -3.8670    0.8150 o         1 MOL     -0.800739
     68 H28        -1.4050   -2.2750    1.2110 hn        1 MOL      0.258583
     69 H29         0.2330   -1.1050    3.4350 h1        1 MOL      0.084415
     70 H30         2.1370   -0.8900    1.9010 hc        1 MOL      0.193712
     71 H31         1.1960   -1.4290    0.5270 hc        1 MOL      0.193712
     72 H32         2.4660   -2.8610    3.5660 hn        1 MOL      0.359796
     73 H33         2.5610   -4.4690    2.8020 hn        1 MOL      0.359796
     74 N8         -1.6770    0.3600    1.6510 n         1 MOL     -0.314875
     75 C23        -2.2050    1.6740    1.3690 c3        1 MOL     -0.075952
     76 C24        -1.3680    2.5350    0.4310 c         1 MOL      0.728233
     77 O12        -1.0930    2.1060   -0.6710 o         1 MOL     -0.600119
     78 H34        -2.3390   -0.3620    1.4310 hn        1 MOL      0.198803
     79 H35        -2.3270    2.1880    2.3210 h1        1 MOL      0.064909
     80 H36        -3.1190    1.5380    0.7930 h1        1 MOL      0.064909
     81 N9         -1.0190    3.7100    0.9630 n         1 MOL     -0.869517
     82 C25        -0.1080    4.6810    0.3680 c3        1 MOL      0.602659
     83 C26         1.3740    4.2000    0.0650 c         1 MOL      0.191372
     84 O13         2.3270    4.9180    0.3890 o         1 MOL     -0.482221
     85 C27        -0.6740    5.2790   -0.8930 c3        1 MOL     -0.108663
     86 C28         0.0940    6.5090   -1.3670 ca        1 MOL     -0.082377
     87 C29         0.0370    7.6660   -0.5440 ca        1 MOL     -0.067501
     88 C30         0.8200    6.5490   -2.6110 ca        1 MOL     -0.067501
     89 C31         0.5990    8.8060   -0.9290 ca        1 MOL     -0.347626
     90 C32         1.4170    7.7380   -3.0120 ca        1 MOL     -0.347626
     91 C33         1.3540    8.8730   -2.1490 ca        1 MOL      0.437778
     92 O14         2.0580    9.9300   -2.5670 oh        1 MOL     -0.509619
     93 H37        -1.2770    3.7260    1.9450 hn        1 MOL      0.386083
     94 H38        -0.0310    5.5390    1.0300 h1        1 MOL     -0.018791
     95 H39        -1.6790    5.6370   -0.6950 hc        1 MOL      0.066597
     96 H40        -0.7410    4.6280   -1.7650 hc        1 MOL      0.066597
     97 H41        -0.6080    7.6000    0.3220 ha        1 MOL      0.132742
     98 H42         0.9190    5.6860   -3.2520 ha        1 MOL      0.132742
     99 H43         0.4730    9.6990   -0.3230 ha        1 MOL      0.161525
    100 H44         2.0050    7.8130   -3.9220 ha        1 MOL      0.161525
    101 H45         2.2900    9.9060   -3.5050 ho        1 MOL      0.362264
    102 N10         1.6020    2.9690   -0.4540 n         1 MOL     -0.154569
    103 C34         2.8530    2.3190   -0.7000 c3        1 MOL     -0.322007
    104 C35         3.6030    1.9250    0.6220 c         1 MOL      0.656788
    105 O15         4.1470    0.8630    0.6930 o         1 MOL     -0.590621
    106 C36         3.7230    3.0380   -1.7360 c3        1 MOL      0.097248
    107 C37         2.9070    3.0700   -3.0980 c3        1 MOL      0.411611
    108 C38         5.1280    2.4000   -1.9860 c3        1 MOL     -0.385738
    109 C39         3.5420    3.7190   -4.3120 c3        1 MOL     -0.403148
    110 H46         0.8410    2.3680   -0.7540 hn        1 MOL      0.243641
    111 H47         2.5610    1.3480   -1.1240 h1        1 MOL      0.133547
    112 H48         3.8740    4.0260   -1.3260 hc        1 MOL      0.041332
    113 H49         2.0470    3.7330   -2.9780 hc        1 MOL     -0.091563
    114 H50         2.5010    2.0780   -3.2920 hc        1 MOL     -0.091563
    115 H51         5.6420    2.1520   -1.0580 hc        1 MOL      0.097750
    116 H52         5.1190    1.4870   -2.5760 hc        1 MOL      0.097750
    117 H53         5.7880    3.1660   -2.3770 hc        1 MOL      0.097750
    118 H54         4.4220    3.1540   -4.6200 hc        1 MOL      0.080465
    119 H55         2.7550    3.5740   -5.0520 hc        1 MOL      0.080465
    120 H56         3.7530    4.7400   -4.0170 hc        1 MOL      0.080465
    121 N11         3.5140    2.7350    1.7210 n         1 MOL     -0.416172
    122 C40         4.0630    2.5870    3.0800 c3        1 MOL      0.070579
    123 C41         5.5770    2.1050    3.1130 c         1 MOL      0.251019
    124 O16         5.8240    1.2160    3.9580 o         1 MOL     -0.461747
    125 C42         3.9900    3.9620    3.7470 c3        1 MOL      0.119406
    126 O17         2.6400    4.3020    3.9650 oh        1 MOL     -0.577114
    127 H57         3.0480    3.6180    1.6000 hn        1 MOL      0.310029
    128 H58         3.4700    1.8320    3.5900 h1        1 MOL      0.072557
    129 H59         4.5010    4.7320    3.1760 h1        1 MOL      0.046548
    130 H60         4.4150    3.8820    4.7540 h1        1 MOL      0.046548
    131 H61         2.5670    4.0310    4.8760 ho        1 MOL      0.400178
    132 N12         6.3190    2.6240    2.1480 n         1 MOL     -0.266686
    133 C43         7.7000    2.2550    1.8580 c3        1 MOL      0.057703
    134 C44         8.0430    0.7570    1.7520 c         1 MOL      0.521560
    135 O18         9.2100    0.3030    1.8410 o         1 MOL     -0.519141
    136 C45         8.5660    2.8930    2.9250 c3        1 MOL     -0.556744
    137 H62         5.9480    3.3780    1.5940 hn        1 MOL      0.268504
    138 H63         7.8160    2.8440    0.9460 h1        1 MOL      0.102100
    139 H64         8.5690    3.9850    2.8690 hc        1 MOL      0.167014
    140 H65         8.2930    2.4960    3.8970 hc        1 MOL      0.167014
    141 H66         9.5390    2.4350    2.7350 hc        1 MOL      0.167014
    142 N13         6.9910   -0.0900    1.5740 n         1 MOL     -0.711827
    143 C46         7.0550   -1.5880    1.4560 c3        1 MOL      0.747167
    144 C47         6.9110   -2.1490    0.0440 c         1 MOL      0.178674
    145 O19         6.4610   -1.4090   -0.8510 o         1 MOL     -0.420850
    146 C48         6.0350   -2.1020    2.4380 c3        1 MOL     -0.130075
    147 H67         6.0450    0.2800    1.6030 hn        1 MOL      0.381465
    148 H68         7.9710   -2.0310    1.8560 h1        1 MOL     -0.099014
    149 H69         6.1850   -1.8560    3.4880 hc        1 MOL      0.011915
    150 H70         5.0200   -1.8580    2.1070 hc        1 MOL      0.011915
    151 H71         6.1590   -3.1780    2.3710 hc        1 MOL      0.011915
    152 N14         7.0380   -3.4720   -0.1870 n         1 MOL     -0.458163
    153 C49         6.6440   -4.1840   -1.4500 c3        1 MOL     -0.102046
    154 C50         7.0900   -3.5650   -2.7970 c         1 MOL      0.351506
    155 O20         6.4990   -3.7160   -3.8640 o         1 MOL     -0.455165
    156 C51         5.0730   -4.3720   -1.4160 c3        1 MOL      0.422109
    157 C52         4.6070   -5.7990   -0.9940 c3        1 MOL     -0.299579
    158 C53         3.1040   -5.9910   -1.3120 c         1 MOL      0.776751
    159 O21         2.2380   -6.1470   -0.3840 o         1 MOL     -0.757552
    160 O22         2.6960   -5.8650   -2.4640 o         1 MOL     -0.757552
    161 H72         7.3860   -4.0470    0.5650 hn        1 MOL      0.304454
    162 H73         7.0820   -5.1830   -1.3960 h1        1 MOL      0.088410
    163 H74         4.6840   -4.1830   -2.4230 hc        1 MOL     -0.039692
    164 H75         4.6100   -3.7230   -0.6710 hc        1 MOL     -0.039692
    165 H76         4.7970   -5.8880    0.0750 hc        1 MOL      0.020762
    166 H77         5.1160   -6.5440   -1.6080 hc        1 MOL      0.020762
    167 N15         8.2600   -2.8620   -2.7170 n         1 MOL     -0.237377
    168 C54         8.8180   -1.9660   -3.7320 c3        1 MOL     -0.043586
    169 H78         8.9240   -0.9640   -3.3140 h1        1 MOL      0.056541
    170 H79         9.7950   -2.3330   -4.0440 h1        1 MOL      0.056541
    171 H80         8.1510   -1.9310   -4.5940 h1        1 MOL      0.056541
    172 H81         8.7910   -2.9370   -1.8700 hn        1 MOL      0.233428
    173 Ca1         0.3620   -4.6780   -1.4220 Ca        1 MOL      1.808792
    174 O23        -0.2230   -7.0900   -2.1820 oh        1 MOL     -0.825452
    175 H82        -1.0060   -7.4560   -2.6210 ho        1 MOL      0.410252
    176 H83         0.3080   -7.8570   -1.9890 ho        1 MOL      0.410252
    177 O24         0.0060   -3.9690   -3.9640 oh        1 MOL     -0.825452
    178 H84         0.2190   -4.5880   -4.6540 ho        1 MOL      0.410252
    179 H85        -0.5010   -3.2850   -4.4030 ho        1 MOL      0.410252
    180 O25         1.6770   -2.4250   -1.9330 oh        1 MOL     -0.825452
    181 H86         1.0310   -1.7190   -1.9170 ho        1 MOL      0.410252
    182 H87         2.5230   -1.9820   -1.9910 ho        1 MOL      0.410252
    183 O26        -0.5360   -5.9690    0.6500 oh        1 MOL     -0.825452
    184 H88        -1.0200   -6.7910    0.7140 ho        1 MOL      0.410252
    185 H89        -0.0560   -5.9050    1.4680 ho        1 MOL      0.410252
@<TRIPOS>BOND
     1    1    2 1   
     2    1    4 1   
     3    1    5 1   
     4    1    6 1   
     5    2    3 2   
     6    2    7 1   
     7    7    8 1   
     8    7   15 1   
     9    8    9 1   
    10    8   11 1   
    11    8   16 1   
    12    9   10 2   
    13    9   19 1   
    14   11   12 1   
    15   11   17 1   
    16   11   18 1   
    17   12   13 1   
    18   12   14 1   
    19   19   20 1   
    20   19   28 1   
    21   20   21 1   
    22   20   23 1   
    23   20   29 1   
    24   21   22 2   
    25   21   41 1   
    26   23   24 1   
    27   23   30 1   
    28   23   31 1   
    29   24   25 1   
    30   24   32 1   
    31   24   33 1   
    32   25   26 1   
    33   25   34 1   
    34   25   35 1   
    35   26   27 1   
    36   26   36 1   
    37   26   37 1   
    38   27   38 1   
    39   27   39 1   
    40   27   40 1   
    41   41   42 1   
    42   41   49 1   
    43   42   43 1   
    44   42   45 1   
    45   42   50 1   
    46   43   44 2   
    47   43   53 1   
    48   45   46 1   
    49   45   51 1   
    50   45   52 1   
    51   46   47 1   
    52   46   48 1   
    53   53   54 1   
    54   53   57 1   
    55   54   55 1   
    56   54   58 1   
    57   54   59 1   
    58   55   56 2   
    59   55   60 1   
    60   60   61 1   
    61   60   68 1   
    62   61   62 1   
    63   61   64 1   
    64   61   69 1   
    65   62   63 2   
    66   62   74 1   
    67   64   65 1   
    68   64   70 1   
    69   64   71 1   
    70   65   66 1   
    71   65   67 2   
    72   66   72 1   
    73   66   73 1   
    74   74   75 1   
    75   74   78 1   
    76   75   76 1   
    77   75   79 1   
    78   75   80 1   
    79   76   77 2   
    80   76   81 1   
    81   81   82 1   
    82   81   93 1   
    83   82   83 1   
    84   82   85 1   
    85   82   94 1   
    86   83   84 2   
    87   83  102 1   
    88   85   86 1   
    89   85   95 1   
    90   85   96 1   
    91   86   87 ar  
    92   86   88 ar  
    93   87   89 ar  
    94   87   97 1   
    95   88   90 ar  
    96   88   98 1   
    97   89   91 ar  
    98   89   99 1   
    99   90   91 ar  
   100   90  100 1   
   101   91   92 1   
   102   92  101 1   
   103  102  103 1   
   104  102  110 1   
   105  103  104 1   
   106  103  106 1   
   107  103  111 1   
   108  104  105 2   
   109  104  121 1   
   110  106  107 1   
   111  106  108 1   
   112  106  112 1   
   113  107  109 1   
   114  107  113 1   
   115  107  114 1   
   116  108  115 1   
   117  108  116 1   
   118  108  117 1   
   119  109  118 1   
   120  109  119 1   
   121  109  120 1   
   122  121  122 1   
   123  121  127 1   
   124  122  123 1   
   125  122  125 1   
   126  122  128 1   
   127  123  124 2   
   128  123  132 1   
   129  125  126 1   
   130  125  129 1   
   131  125  130 1   
   132  126  131 1   
   133  132  133 1   
   134  132  137 1   
   135  133  134 1   
   136  133  136 1   
   137  133  138 1   
   138  134  135 2   
   139  134  142 1   
   140  136  139 1   
   141  136  140 1   
   142  136  141 1   
   143  142  143 1   
   144  142  147 1   
   145  143  144 1   
   146  143  146 1   
   147  143  148 1   
   148  144  145 2   
   149  144  152 1   
   150  146  149 1   
   151  146  150 1   
   152  146  151 1   
   153  152  153 1   
   154  152  161 1   
   155  153  154 1   
   156  153  156 1   
   157  153  162 1   
   158  154  155 2   
   159  154  167 1   
   160  156  157 1   
   161  156  163 1   
   162  156  164 1   
   163  157  158 1   
   164  157  165 1   
   165  157  166 1   
   166  158  159 1   
   167  158  160 1   
   168  167  168 1   
   169  167  172 1   
   170  168  169 1   
   171  168  170 1   
   172  168  171 1   
   173  174  175 1   
   174  174  176 1   
   175  177  178 1   
   176  177  179 1   
   177  180  181 1   
   178  180  182 1   
   179  183  184 1   
   180  183  185 1   
@<TRIPOS>SUBSTRUCTURE
     1 MOL         1 TEMP              0 ****  ****    0 ROOT
