@<TRIPOS>MOLECULE
MOL
  184   179     1     0     0
SMALL
resp


@<TRIPOS>ATOM
      1 C1         -3.9940    0.1720   -3.9770 c3        1 MOL     -0.145654
      2 C2         -4.8390    1.0270   -2.9790 c         1 MOL      0.643432
      3 O1         -4.3980    2.0040   -2.4920 o         1 MOL     -0.569387
      4 H1         -3.2360    0.8020   -4.4430 hc        1 MOL      0.017854
      5 H2         -3.5070   -0.6400   -3.4380 hc        1 MOL      0.017854
      6 H3         -4.6460   -0.2400   -4.7460 hc        1 MOL      0.017854
      7 N1         -6.1020    0.7360   -2.8980 n         1 MOL     -0.449140
      8 C3         -7.1380    1.5130   -2.2480 c3        1 MOL      0.092161
      9 C4         -6.9530    1.7620   -0.7310 c         1 MOL      0.518242
     10 O2         -6.8100    0.8410    0.0520 o         1 MOL     -0.423996
     11 C5         -8.4880    0.8550   -2.4420 c3        1 MOL     -0.180255
     12 C6         -8.6140   -0.5130   -1.7880 c         1 MOL      0.675457
     13 O3         -7.8610   -1.4340   -2.2010 o         1 MOL     -0.680165
     14 O4         -9.4210   -0.7490   -0.8400 o         1 MOL     -0.680165
     15 H4         -6.4540   -0.1580   -3.2110 hn        1 MOL      0.221050
     16 H5         -7.1940    2.5250   -2.6400 h1        1 MOL      0.012414
     17 H6         -8.9050    0.8270   -3.4390 hc        1 MOL      0.028890
     18 H7         -9.1850    1.5030   -1.9100 hc        1 MOL      0.028890
     19 N2         -6.9780    3.0060   -0.2020 n         1 MOL     -0.538674
     20 C7         -6.7420    3.2380    1.2540 c3        1 MOL      0.170829
     21 C8         -5.3170    2.8140    1.6810 c         1 MOL      0.581731
     22 O5         -4.3330    3.3740    1.3040 o         1 MOL     -0.540807
     23 C9         -7.1110    4.6740    1.6430 c3        1 MOL     -0.302373
     24 H8         -7.2310    3.7450   -0.8470 hn        1 MOL      0.313374
     25 H9         -7.4400    2.6050    1.7890 h1        1 MOL      0.046249
     26 H10        -6.6000    5.4670    1.0910 hc        1 MOL      0.082400
     27 H11        -8.1630    4.8280    1.3870 hc        1 MOL      0.082400
     28 H12        -6.9000    4.8820    2.6900 hc        1 MOL      0.082400
     29 N3         -5.2380    1.8960    2.6530 n         1 MOL     -0.534062
     30 C10        -4.0680    1.1560    3.1570 c3        1 MOL      0.130178
     31 C11        -3.2800    2.0410    4.2210 c         1 MOL      0.427017
     32 O6         -3.7980    2.7790    5.0750 o         1 MOL     -0.525648
     33 C12        -4.4590   -0.2460    3.7140 c3        1 MOL     -0.058506
     34 C13        -3.5590   -1.3960    3.5740 c         1 MOL      0.688014
     35 O7         -2.9400   -1.7370    4.6090 o         1 MOL     -0.720041
     36 O8         -3.3760   -1.8060    2.4310 o         1 MOL     -0.720041
     37 H13        -6.1130    1.6110    3.0540 hn        1 MOL      0.252213
     38 H14        -3.4770    0.9200    2.2800 h1        1 MOL      0.108355
     39 H15        -5.2850   -0.4720    3.0380 hc        1 MOL      0.002776
     40 H16        -4.9680   -0.2010    4.6820 hc        1 MOL      0.002776
     41 N4         -1.9940    1.7080    4.3110 n         1 MOL     -0.343649
     42 C14        -1.1030    2.0710    5.4060 c3        1 MOL      0.037933
     43 C15         0.2050    2.6810    4.9360 c         1 MOL      0.470255
     44 O9          0.9980    2.8670    5.8380 o         1 MOL     -0.585671
     45 H17        -1.6030    1.0790    3.6200 hn        1 MOL      0.267496
     46 H18        -0.7250    1.1770    5.9190 h1        1 MOL      0.069207
     47 H19        -1.6620    2.6540    6.1370 h1        1 MOL      0.069207
     48 N5          0.4460    2.8710    3.6610 n         1 MOL     -0.208699
     49 C16         1.7400    3.3000    3.1450 c3        1 MOL     -0.192627
     50 C17         1.6580    4.3430    2.0080 c         1 MOL      0.553376
     51 O10         0.9410    4.1320    1.0210 o         1 MOL     -0.435685
     52 C18         2.2880    2.0540    2.4730 c3        1 MOL     -0.279870
     53 C19         2.4600    0.9150    3.4380 c         1 MOL      0.686660
     54 N6          3.2470    1.0300    4.5380 n         1 MOL     -0.696462
     55 O11         1.8680   -0.1060    3.2540 o         1 MOL     -0.463851
     56 H20        -0.3460    2.8570    3.0400 hn        1 MOL      0.203892
     57 H21         2.4730    3.5340    3.9100 h1        1 MOL      0.089718
     58 H22         3.2490    2.3160    2.0400 hc        1 MOL      0.096852
     59 H23         1.7110    1.7580    1.5920 hc        1 MOL      0.096852
     60 H24         3.7230    1.8880    4.7710 hn        1 MOL      0.324312
     61 H25         3.4730    0.2570    5.1500 hn        1 MOL      0.324312
     62 N7          2.2960    5.4970    2.2100 n         1 MOL     -0.373960
     63 C20         2.4730    6.4500    1.1820 c3        1 MOL     -0.223866
     64 C21         3.6510    6.0550    0.3910 c         1 MOL      0.644910
     65 O12         4.5390    5.4550    0.9240 o         1 MOL     -0.495205
     66 H26         2.9490    5.4300    2.9720 hn        1 MOL      0.290838
     67 H27         2.7220    7.4390    1.5700 h1        1 MOL      0.120394
     68 H28         1.5560    6.4360    0.5780 h1        1 MOL      0.120394
     69 N8          3.6220    6.3170   -0.9720 n         1 MOL     -0.531610
     70 C22         4.6850    6.0130   -1.9210 c3        1 MOL     -0.239962
     71 C23         4.5360    4.6310   -2.4870 c         1 MOL      0.467249
     72 O13         5.5650    3.9810   -2.7540 o         1 MOL     -0.566888
     73 C24         4.8430    7.0740   -3.0230 c3        1 MOL      0.425377
     74 C25         3.7820    7.2310   -4.0560 c3        1 MOL     -0.294186
     75 O14         5.1040    8.3880   -2.5320 oh        1 MOL     -0.619046
     76 H29         2.8570    6.9240   -1.2630 hn        1 MOL      0.292182
     77 H30         5.5910    5.9710   -1.3170 h1        1 MOL      0.152781
     78 H31         5.7220    6.8130   -3.6220 h1        1 MOL      0.048982
     79 H32         4.4970    8.5220   -1.8050 ho        1 MOL      0.359624
     80 H33         4.1090    7.7700   -4.9390 hc        1 MOL      0.070535
     81 H34         3.5130    6.2330   -4.4200 hc        1 MOL      0.070535
     82 H35         2.8200    7.5670   -3.6880 hc        1 MOL      0.070535
     83 N9          3.3170    4.0570   -2.5850 n         1 MOL      0.001339
     84 C26         3.2000    2.5790   -2.8790 c3        1 MOL     -0.040371
     85 C27         2.0470    1.9490   -2.1580 c         1 MOL      0.106241
     86 O15         0.9440    2.5970   -1.9070 o         1 MOL     -0.444629
     87 C28         3.0550    2.4530   -4.4660 c3        1 MOL      0.195127
     88 C29         1.8660    3.1820   -5.1400 c3        1 MOL     -0.218434
     89 C30         4.3890    2.7450   -5.1910 c3        1 MOL     -0.148427
     90 C31         0.4840    2.5720   -4.7720 c3        1 MOL      0.107467
     91 H36         2.4970    4.5450   -2.2590 hn        1 MOL      0.171278
     92 H37         4.1010    2.1000   -2.4940 h1        1 MOL      0.090189
     93 H38         2.8790    1.3930   -4.6700 hc        1 MOL     -0.004791
     94 H39         2.0560    2.9930   -6.1910 hc        1 MOL      0.015278
     95 H40         1.9680    4.2210   -4.8360 hc        1 MOL      0.015278
     96 H41         5.2750    2.2260   -4.8070 hc        1 MOL      0.029506
     97 H42         4.3790    2.3640   -6.2090 hc        1 MOL      0.029506
     98 H43         4.5560    3.8170   -5.3080 hc        1 MOL      0.029506
     99 H44        -0.0720    2.2680   -5.6630 hc        1 MOL      0.007029
    100 H45         0.5330    1.7060   -4.1130 hc        1 MOL      0.007029
    101 H46        -0.1080    3.3560   -4.2900 hc        1 MOL      0.007029
    102 N10         2.1780    0.6490   -1.9030 n         1 MOL     -0.322376
    103 C32         1.2420   -0.0120   -1.0400 c3        1 MOL      0.565167
    104 C33         2.0460   -0.9340    0.0040 c         1 MOL      0.075323
    105 O16         1.5540   -2.0600    0.3590 o         1 MOL     -0.402654
    106 C34         0.3490   -0.8610   -1.9680 c3        1 MOL     -0.341436
    107 C35        -0.9930   -1.2960   -1.3970 c         1 MOL      0.740184
    108 O17        -1.7130   -2.1730   -2.0270 o         1 MOL     -0.694311
    109 O18        -1.3930   -0.8420   -0.2800 o         1 MOL     -0.694311
    110 H47         3.0700    0.2450   -2.1230 hn        1 MOL      0.236815
    111 H48         0.6020    0.6440   -0.4540 h1        1 MOL      0.033154
    112 H49         0.9530   -1.6750   -2.3670 hc        1 MOL      0.044051
    113 H50         0.0650   -0.1900   -2.7830 hc        1 MOL      0.044051
    114 N11         3.2830   -0.6450    0.3220 n         1 MOL     -0.177255
    115 C36         4.1060   -1.6040    1.0750 c3        1 MOL     -0.096166
    116 C37         4.5760   -2.7280    0.0840 c         1 MOL      0.362009
    117 O19         4.8680   -2.4980   -1.1090 o         1 MOL     -0.536175
    118 C38         5.2190   -0.7740    1.7250 c3        1 MOL      0.049172
    119 C39         6.1170   -1.6360    2.5980 ca        1 MOL      0.073004
    120 C40         5.6880   -1.8550    3.8850 ca        1 MOL     -0.186545
    121 C41         7.3320   -2.2040    2.0840 ca        1 MOL     -0.186545
    122 C42         6.5780   -2.6440    4.6730 ca        1 MOL     -0.092528
    123 C43         8.1290   -3.0410    2.8620 ca        1 MOL     -0.092528
    124 C44         7.7460   -3.3000    4.1680 ca        1 MOL     -0.151895
    125 H51         3.5880    0.2620   -0.0040 hn        1 MOL      0.217326
    126 H52         3.3940   -1.9000    1.8440 h1        1 MOL      0.110914
    127 H53         4.8180   -0.0290    2.4150 hc        1 MOL     -0.002840
    128 H54         5.7810   -0.1830    0.9970 hc        1 MOL     -0.002840
    129 H55         4.7760   -1.4260    4.2810 ha        1 MOL      0.131651
    130 H56         7.6260   -1.9060    1.0900 ha        1 MOL      0.131651
    131 H57         6.3170   -2.8340    5.6980 ha        1 MOL      0.105025
    132 H58         8.9530   -3.5800    2.4310 ha        1 MOL      0.105025
    133 H59         8.4030   -3.9360    4.7410 ha        1 MOL      0.112656
    134 N12         4.4600   -4.0090    0.4970 n         1 MOL     -0.002023
    135 C45         4.8200   -5.1100   -0.4020 c3        1 MOL     -0.160586
    136 C46         3.7480   -5.4690   -1.4200 c         1 MOL      0.366331
    137 O20         3.9830   -6.2440   -2.3390 o         1 MOL     -0.523943
    138 C47         5.0320   -6.1920    0.6700 c3        1 MOL      0.105531
    139 C48         3.8220   -6.1440    1.6080 c3        1 MOL     -0.157948
    140 C49         3.9680   -4.5660    1.7440 c3        1 MOL     -0.008554
    141 H60         5.7750   -4.9130   -0.8690 h1        1 MOL      0.095538
    142 H61         5.1930   -7.1810    0.2520 hc        1 MOL     -0.005838
    143 H62         5.9490   -5.9730    1.2280 hc        1 MOL     -0.005838
    144 H63         2.9760   -6.5310    1.0360 hc        1 MOL      0.064009
    145 H64         4.0510   -6.6110    2.5670 hc        1 MOL      0.064009
    146 H65         2.9950   -4.1560    2.0410 h1        1 MOL      0.043421
    147 H66         4.6530   -4.3670    2.5650 h1        1 MOL      0.043421
    148 N13         2.5380   -4.8980   -1.3030 n         1 MOL      0.033695
    149 C50         1.4570   -5.4470   -2.1620 c3        1 MOL     -0.431336
    150 C51         1.6140   -4.9720   -3.6050 c         1 MOL      0.535659
    151 O21         1.1190   -5.6840   -4.4710 o         1 MOL     -0.560919
    152 C52         0.0770   -5.1140   -1.5920 c3        1 MOL      0.336464
    153 C53        -0.2180   -5.6880   -0.1870 c3        1 MOL     -0.233288
    154 C54        -1.5550   -5.3180    0.3970 c         1 MOL      0.794631
    155 O22        -2.4430   -6.2040    0.6300 o         1 MOL     -0.728059
    156 O23        -1.8060   -4.0890    0.6920 o         1 MOL     -0.728059
    157 H67         2.3170   -4.1270   -0.6920 hn        1 MOL      0.289160
    158 H68         1.5280   -6.5350   -2.2040 h1        1 MOL      0.159250
    159 H69        -0.6940   -5.5040   -2.2560 hc        1 MOL     -0.030277
    160 H70         0.0470   -4.0250   -1.5850 hc        1 MOL     -0.030277
    161 H71         0.5750   -5.2900    0.4380 hc        1 MOL     -0.005844
    162 H72        -0.1960   -6.7790   -0.2610 hc        1 MOL     -0.005844
    163 N14         2.3100   -3.8650   -3.8300 n         1 MOL     -0.177137
    164 C55         2.6340   -3.3170   -5.2130 c3        1 MOL     -0.350770
    165 H73         3.6060   -2.8250   -5.1900 h1        1 MOL      0.132198
    166 H74         2.6590   -4.1370   -5.9320 h1        1 MOL      0.132198
    167 H75         1.8700   -2.5980   -5.5080 h1        1 MOL      0.132198
    168 H76         2.7300   -3.4410   -3.0100 hn        1 MOL      0.190726
    169 Ca1        -3.5430   -2.4330   -0.0260 Ca        1 MOL      1.712914
    170 O24        -4.0980    0.1690   -0.0200 oh        1 MOL     -0.821228
    171 H77        -3.6820    1.0250   -0.0030 ho        1 MOL      0.386034
    172 H78        -5.0260    0.3570   -0.1880 ho        1 MOL      0.386034
    173 O25        -6.0500   -1.8250    0.7140 oh        1 MOL     -0.821228
    174 H79        -6.4220   -0.9530    0.5730 ho        1 MOL      0.386034
    175 H80        -6.7850   -2.4170    0.5660 ho        1 MOL      0.386034
    176 O26        -3.7430   -4.8720   -1.7310 oh        1 MOL     -0.821228
    177 H81        -4.1650   -4.4450   -2.4840 ho        1 MOL      0.386034
    178 H82        -4.2480   -5.6770   -1.6040 ho        1 MOL      0.386034
    179 O27        -4.6280   -4.5820    1.0060 oh        1 MOL     -0.821228
    180 H83        -4.0940   -5.3450    0.8070 ho        1 MOL      0.386034
    181 H84        -5.4070   -4.9410    1.4380 ho        1 MOL      0.386034
    182 O28        -5.2660   -2.1650   -2.1430 oh        1 MOL     -0.821228
    183 H85        -6.1980   -1.9590   -2.0740 ho        1 MOL      0.386034
    184 H86        -5.1980   -2.7170   -2.9200 ho        1 MOL      0.386034
@<TRIPOS>BOND
     1    1    2 1   
     2    1    4 1   
     3    1    5 1   
     4    1    6 1   
     5    2    3 2   
     6    2    7 1   
     7    7    8 1   
     8    7   15 1   
     9    8    9 1   
    10    8   11 1   
    11    8   16 1   
    12    9   10 2   
    13    9   19 1   
    14   11   12 1   
    15   11   17 1   
    16   11   18 1   
    17   12   13 1   
    18   12   14 1   
    19   19   20 1   
    20   19   24 1   
    21   20   21 1   
    22   20   23 1   
    23   20   25 1   
    24   21   22 2   
    25   21   29 1   
    26   23   26 1   
    27   23   27 1   
    28   23   28 1   
    29   29   30 1   
    30   29   37 1   
    31   30   31 1   
    32   30   33 1   
    33   30   38 1   
    34   31   32 2   
    35   31   41 1   
    36   33   34 1   
    37   33   39 1   
    38   33   40 1   
    39   34   35 1   
    40   34   36 1   
    41   41   42 1   
    42   41   45 1   
    43   42   43 1   
    44   42   46 1   
    45   42   47 1   
    46   43   44 2   
    47   43   48 1   
    48   48   49 1   
    49   48   56 1   
    50   49   50 1   
    51   49   52 1   
    52   49   57 1   
    53   50   51 2   
    54   50   62 1   
    55   52   53 1   
    56   52   58 1   
    57   52   59 1   
    58   53   54 1   
    59   53   55 2   
    60   54   60 1   
    61   54   61 1   
    62   62   63 1   
    63   62   66 1   
    64   63   64 1   
    65   63   67 1   
    66   63   68 1   
    67   64   65 2   
    68   64   69 1   
    69   69   70 1   
    70   69   76 1   
    71   70   71 1   
    72   70   73 1   
    73   70   77 1   
    74   71   72 2   
    75   71   83 1   
    76   73   74 1   
    77   73   75 1   
    78   73   78 1   
    79   74   80 1   
    80   74   81 1   
    81   74   82 1   
    82   75   79 1   
    83   83   84 1   
    84   83   91 1   
    85   84   85 1   
    86   84   87 1   
    87   84   92 1   
    88   85   86 2   
    89   85  102 1   
    90   87   88 1   
    91   87   89 1   
    92   87   93 1   
    93   88   90 1   
    94   88   94 1   
    95   88   95 1   
    96   89   96 1   
    97   89   97 1   
    98   89   98 1   
    99   90   99 1   
   100   90  100 1   
   101   90  101 1   
   102  102  103 1   
   103  102  110 1   
   104  103  104 1   
   105  103  106 1   
   106  103  111 1   
   107  104  105 2   
   108  104  114 1   
   109  106  107 1   
   110  106  112 1   
   111  106  113 1   
   112  107  108 1   
   113  107  109 1   
   114  114  115 1   
   115  114  125 1   
   116  115  116 1   
   117  115  118 1   
   118  115  126 1   
   119  116  117 2   
   120  116  134 1   
   121  118  119 1   
   122  118  127 1   
   123  118  128 1   
   124  119  120 ar  
   125  119  121 ar  
   126  120  122 ar  
   127  120  129 1   
   128  121  123 ar  
   129  121  130 1   
   130  122  124 ar  
   131  122  131 1   
   132  123  124 ar  
   133  123  132 1   
   134  124  133 1   
   135  134  135 1   
   136  134  140 1   
   137  135  136 1   
   138  135  138 1   
   139  135  141 1   
   140  136  137 2   
   141  136  148 1   
   142  138  139 1   
   143  138  142 1   
   144  138  143 1   
   145  139  140 1   
   146  139  144 1   
   147  139  145 1   
   148  140  146 1   
   149  140  147 1   
   150  148  149 1   
   151  148  157 1   
   152  149  150 1   
   153  149  152 1   
   154  149  158 1   
   155  150  151 2   
   156  150  163 1   
   157  152  153 1   
   158  152  159 1   
   159  152  160 1   
   160  153  154 1   
   161  153  161 1   
   162  153  162 1   
   163  154  155 1   
   164  154  156 1   
   165  163  164 1   
   166  163  168 1   
   167  164  165 1   
   168  164  166 1   
   169  164  167 1   
   170  170  171 1   
   171  170  172 1   
   172  173  174 1   
   173  173  175 1   
   174  176  177 1   
   175  176  178 1   
   176  179  180 1   
   177  179  181 1   
   178  182  183 1   
   179  182  184 1   
@<TRIPOS>SUBSTRUCTURE
     1 MOL         1 TEMP              0 ****  ****    0 ROOT
