@<TRIPOS>MOLECULE
MOL
  175   173     1     0     0
SMALL
resp


@<TRIPOS>ATOM
      1 C1         -6.5580    7.7720    2.2330 c3        1 MOL     -0.365819
      2 C2         -7.3530    7.1790    1.0680 c         1 MOL      0.629502
      3 O1         -7.4180    7.7780   -0.0220 o         1 MOL     -0.564356
      4 H1         -5.5480    7.3620    2.2290 hc        1 MOL      0.092109
      5 H2         -6.5090    8.8550    2.1260 hc        1 MOL      0.092109
      6 H3         -7.0470    7.5200    3.1730 hc        1 MOL      0.092109
      7 N1         -7.9890    5.9630    1.2240 n         1 MOL     -0.488604
      8 C3         -8.7380    5.2670    0.1340 c3        1 MOL      0.092049
      9 C4         -7.8810    4.4000   -0.7570 c         1 MOL      0.392670
     10 O2         -8.3420    4.0500   -1.8520 o         1 MOL     -0.514192
     11 C5         -9.7520    4.3100    0.7460 c3        1 MOL     -0.115183
     12 C6        -10.7320    3.6000   -0.1860 c         1 MOL      0.729827
     13 O3        -11.6480    4.3170   -0.6060 o         1 MOL     -0.733048
     14 O4        -10.5570    2.4350   -0.4360 o         1 MOL     -0.733048
     15 H4         -7.8290    5.5020    2.1030 hn        1 MOL      0.271652
     16 H5         -9.3780    5.9940   -0.3750 h1        1 MOL      0.089435
     17 H6        -10.3610    4.8690    1.4600 hc        1 MOL     -0.025127
     18 H7         -9.1940    3.5710    1.3330 hc        1 MOL     -0.025127
     19 N2         -6.7220    4.0430   -0.3570 n         1 MOL     -0.288302
     20 C7         -5.8600    3.1420   -1.0400 c3        1 MOL      0.255240
     21 C8         -5.0420    2.2890    0.0030 c         1 MOL      0.398352
     22 O5         -4.5880    2.9200    0.9660 o         1 MOL     -0.526322
     23 C9         -4.9520    3.8420   -2.0230 c3        1 MOL     -0.223294
     24 H8         -6.4830    4.3740    0.5610 hn        1 MOL      0.191408
     25 H9         -6.4730    2.4140   -1.5640 h1        1 MOL      0.037449
     26 H10        -4.7100    3.2530   -2.9030 hc        1 MOL      0.063475
     27 H11        -5.5070    4.6730   -2.4670 hc        1 MOL      0.063475
     28 H12        -4.0510    4.3290   -1.6430 hc        1 MOL      0.063475
     29 N3         -4.7390    0.9920   -0.1720 n         1 MOL     -0.348509
     30 C10        -5.1520    0.0480   -1.2440 c3        1 MOL     -0.085554
     31 C11        -5.5080   -1.3100   -0.6970 c         1 MOL      0.426725
     32 O6         -4.7110   -1.8550    0.0700 o         1 MOL     -0.478014
     33 C12        -4.0920   -0.1490   -2.3050 c3        1 MOL     -0.244734
     34 C13        -2.6580   -0.3140   -1.7580 c         1 MOL      0.832935
     35 O7         -2.0430   -1.2870   -2.0510 o         1 MOL     -0.741903
     36 O8         -1.9920    0.5020   -1.0810 o         1 MOL     -0.741903
     37 H13        -4.2580    0.5780    0.6100 hn        1 MOL      0.283335
     38 H14        -6.0260    0.5190   -1.7070 h1        1 MOL      0.097471
     39 H15        -4.0860    0.7550   -2.9190 hc        1 MOL      0.065419
     40 H16        -4.2720   -0.9920   -2.9670 hc        1 MOL      0.065419
     41 N4         -6.4930   -1.9820   -1.3590 n         1 MOL     -0.347044
     42 C14        -6.8000   -3.3790   -1.1090 c3        1 MOL      0.026740
     43 C15        -6.3480   -4.3360   -2.2680 c         1 MOL      0.533854
     44 O9         -7.1730   -4.6540   -3.0800 o         1 MOL     -0.542143
     45 H17        -7.0780   -1.4880   -2.0220 hn        1 MOL      0.303773
     46 H18        -7.8190   -3.5190   -0.7410 h1        1 MOL      0.051269
     47 H19        -6.2690   -3.7730   -0.2400 h1        1 MOL      0.051269
     48 N5         -5.0870   -4.8800   -2.3070 n         1 MOL     -0.528609
     49 C16        -3.8550   -4.5870   -1.6150 c3        1 MOL      0.110919
     50 C17        -3.6540   -5.3770   -0.3370 c         1 MOL      0.453462
     51 O10        -3.4360   -6.6110   -0.3650 o         1 MOL     -0.557925
     52 C18        -2.7600   -4.7470   -2.6330 c3        1 MOL     -0.014309
     53 C19        -1.3880   -4.3760   -2.0710 c         1 MOL      0.629578
     54 N6         -0.4520   -4.5860   -2.8930 n         1 MOL     -0.706469
     55 O11        -1.2260   -3.9160   -0.9990 o         1 MOL     -0.720286
     56 H20        -5.0520   -5.6410   -2.9770 hn        1 MOL      0.306045
     57 H21        -3.8340   -3.5360   -1.3290 h1        1 MOL      0.167393
     58 H22        -3.0360   -3.9400   -3.3130 hc        1 MOL      0.002499
     59 H23        -2.8080   -5.6970   -3.1610 hc        1 MOL      0.002499
     60 H24        -0.5520   -4.9790   -3.8160 hn        1 MOL      0.350929
     61 H25         0.4770   -4.4680   -2.5190 hn        1 MOL      0.350929
     62 N7         -3.6220   -4.6660    0.7600 n         1 MOL     -0.209838
     63 C20        -3.4990   -5.2140    2.1270 c3        1 MOL     -0.305889
     64 C21        -2.0630   -5.5570    2.5450 c         1 MOL      0.523329
     65 O12        -1.8080   -6.1900    3.5510 o         1 MOL     -0.551844
     66 H26        -3.6960   -3.6590    0.7310 hn        1 MOL      0.196765
     67 H27        -4.0660   -6.1380    2.2450 h1        1 MOL      0.142886
     68 H28        -3.9480   -4.5050    2.8160 h1        1 MOL      0.142886
     69 N8         -0.9860   -5.1040    1.8280 n         1 MOL     -0.208036
     70 C22         0.3720   -5.4350    2.1650 c3        1 MOL     -0.360495
     71 C23         1.1420   -4.1530    1.9950 c         1 MOL      0.509413
     72 O13         0.8270   -3.2590    1.1420 o         1 MOL     -0.637226
     73 C24         0.9720   -6.5280    1.2670 c3        1 MOL      0.489834
     74 C25         0.2320   -7.8050    1.4490 c3        1 MOL     -0.461398
     75 O14         0.8830   -6.2240   -0.0680 oh        1 MOL     -0.566580
     76 H29        -1.2010   -4.4760    1.0620 hn        1 MOL      0.402730
     77 H30         0.3630   -5.7540    3.2080 h1        1 MOL      0.148928
     78 H31         2.0120   -6.7770    1.5060 h1        1 MOL     -0.028569
     79 H32         1.7720   -6.0020   -0.3350 ho        1 MOL      0.357607
     80 H33        -0.7520   -7.7920    0.9740 hc        1 MOL      0.118476
     81 H34         0.7270   -8.6880    1.0420 hc        1 MOL      0.118476
     82 H35         0.0640   -7.9360    2.5170 hc        1 MOL      0.118476
     83 N9          2.2080   -4.0030    2.7170 n         1 MOL     -0.283393
     84 C26         3.0420   -2.8330    2.7030 c3        1 MOL     -0.048093
     85 C27         4.1300   -3.0190    1.6010 c         1 MOL      0.296351
     86 O15         5.0050   -3.8910    1.7350 o         1 MOL     -0.538213
     87 C28         3.6270   -2.5200    4.0900 c3        1 MOL      0.195818
     88 C29         4.7690   -1.5090    4.0890 c3        1 MOL     -0.097639
     89 C30         2.4820   -2.2210    5.0440 c3        1 MOL     -0.310294
     90 C31         4.3930    0.0070    3.9710 c3        1 MOL     -0.147552
     91 H36         2.4330   -4.7870    3.3150 hn        1 MOL      0.242375
     92 H37         2.3940   -1.9960    2.4520 h1        1 MOL      0.190223
     93 H38         4.0400   -3.4510    4.4920 hc        1 MOL     -0.014201
     94 H39         5.5250   -1.7480    3.3400 hc        1 MOL      0.030971
     95 H40         5.2010   -1.5710    5.0890 hc        1 MOL      0.030971
     96 H41         1.9330   -3.1210    5.3310 hc        1 MOL      0.074493
     97 H42         2.8070   -1.7870    5.9860 hc        1 MOL      0.074493
     98 H43         1.8410   -1.5100    4.5110 hc        1 MOL      0.074493
     99 H44         3.5690    0.2450    4.6450 hc        1 MOL      0.042591
    100 H45         5.2730    0.5590    4.2740 hc        1 MOL      0.042591
    101 H46         4.1110    0.2100    2.9420 hc        1 MOL      0.042591
    102 N10         4.1460   -2.0980    0.6460 n         1 MOL      0.000597
    103 C32         4.9290   -2.4280   -0.5330 c3        1 MOL     -0.051056
    104 C33         5.8380   -1.4050   -1.1440 c         1 MOL      0.519038
    105 O16         6.4260   -1.6070   -2.1990 o         1 MOL     -0.527488
    106 C34         3.9900   -3.1630   -1.5510 c3        1 MOL     -0.063306
    107 C35         2.9060   -2.4330   -2.3140 c         1 MOL      0.633330
    108 O17         3.2240   -1.5780   -3.2160 o         1 MOL     -0.684822
    109 O18         1.7330   -2.5640   -1.9310 o         1 MOL     -0.684822
    110 H47         3.5150   -1.3150    0.5820 hn        1 MOL      0.082062
    111 H48         5.6540   -3.1910   -0.2300 h1        1 MOL      0.087326
    112 H49         3.4740   -3.9380   -0.9920 hc        1 MOL      0.023526
    113 H50         4.5480   -3.8710   -2.1750 hc        1 MOL      0.023526
    114 N11         5.9370   -0.1830   -0.5410 n         1 MOL     -0.500307
    115 C36         6.6180    0.9520   -1.1190 c3        1 MOL      0.221019
    116 C37         6.2810    2.1910   -0.2720 c         1 MOL      0.324148
    117 O19         6.1080    2.0070    0.9490 o         1 MOL     -0.519550
    118 C38         8.1440    0.7730   -1.1310 c3        1 MOL     -0.083565
    119 C39         8.8930    1.7260   -2.0890 ca        1 MOL      0.135728
    120 C40         9.5820    2.8250   -1.6140 ca        1 MOL     -0.247990
    121 C41         8.9000    1.4260   -3.4980 ca        1 MOL     -0.247990
    122 C42        10.1680    3.7340   -2.5660 ca        1 MOL     -0.024978
    123 C43         9.6370    2.2410   -4.4170 ca        1 MOL     -0.024978
    124 C44        10.2160    3.4080   -3.9240 ca        1 MOL     -0.218858
    125 H51         5.6330   -0.0560    0.4210 hn        1 MOL      0.270058
    126 H52         6.3520    1.1500   -2.1610 h1        1 MOL      0.073480
    127 H53         8.4040   -0.2610   -1.3750 hc        1 MOL      0.044946
    128 H54         8.6020    0.9740   -0.1660 hc        1 MOL      0.044946
    129 H55         9.5460    3.1050   -0.5720 ha        1 MOL      0.149075
    130 H56         8.3560    0.5520   -3.8360 ha        1 MOL      0.149075
    131 H57        10.5890    4.6320   -2.1480 ha        1 MOL      0.094843
    132 H58         9.5720    2.0000   -5.4570 ha        1 MOL      0.094843
    133 H59        10.6480    4.0820   -4.6600 ha        1 MOL      0.117450
    134 N12         6.1020    3.3740   -0.8020 n         1 MOL     -0.028877
    135 C45         5.8900    4.7000   -0.1410 c3        1 MOL     -0.193925
    136 C46         4.5800    5.0480    0.6250 c         1 MOL      0.579321
    137 O20         4.5220    6.0500    1.3070 o         1 MOL     -0.563488
    138 C47         6.2350    5.6580   -1.2800 c3        1 MOL     -0.027911
    139 C48         5.6040    5.0130   -2.5160 c3        1 MOL     -0.072544
    140 C49         6.1230    3.6360   -2.2560 c3        1 MOL     -0.147436
    141 H60         6.6500    4.8170    0.6340 h1        1 MOL      0.101514
    142 H61         5.7820    6.6340   -1.0940 hc        1 MOL      0.043001
    143 H62         7.3180    5.7550   -1.4100 hc        1 MOL      0.043001
    144 H63         4.5120    5.0180   -2.4940 hc        1 MOL      0.059488
    145 H64         6.0550    5.4620   -3.4010 hc        1 MOL      0.059488
    146 H65         5.4740    2.9230   -2.7640 h1        1 MOL      0.083120
    147 H66         7.1440    3.5240   -2.6290 h1        1 MOL      0.083120
    148 N13         3.6590    4.1380    0.7320 n         1 MOL     -0.264838
    149 C50         2.3690    4.3510    1.4250 c3        1 MOL     -0.145190
    150 C51         2.4560    4.7420    2.9070 c         1 MOL      0.513959
    151 O21         1.6290    5.5540    3.3850 o         1 MOL     -0.551004
    152 C52         1.4820    3.1400    1.2220 c3        1 MOL     -0.033517
    153 C53         2.0230    1.8380    1.8290 c3        1 MOL     -0.100319
    154 C54         1.2930    0.6740    1.1860 c         1 MOL      0.613808
    155 O22         1.8090   -0.0710    0.3760 o         1 MOL     -0.674071
    156 O23         0.1750    0.3790    1.5390 o         1 MOL     -0.674071
    157 H67         3.8830    3.2820    0.2380 hn        1 MOL      0.217167
    158 H68         1.8080    5.1280    0.9150 h1        1 MOL      0.116279
    159 H69         1.3710    3.0620    0.1360 hc        1 MOL      0.071211
    160 H70         0.5500    3.4380    1.7080 hc        1 MOL      0.071211
    161 H71         1.8820    1.8700    2.9080 hc        1 MOL      0.015020
    162 H72         3.0930    1.8010    1.6430 hc        1 MOL      0.015020
    163 N14         3.4190    4.2270    3.6670 n         1 MOL     -0.150651
    164 C55         3.6180    4.5640    5.0720 c3        1 MOL     -0.066755
    165 H73         4.5450    5.1270    5.1830 h1        1 MOL      0.052466
    166 H74         2.7820    5.1690    5.4240 h1        1 MOL      0.052466
    167 H75         3.6770    3.6490    5.6610 h1        1 MOL      0.052466
    168 H76         4.0650    3.6130    3.1920 hn        1 MOL      0.158553
    169 Ca1        -0.0570   -1.4710   -0.5250 Ca        1 MOL      1.777931
    170 O24         0.8250    0.1770   -2.6480 oh        1 MOL     -0.922962
    171 H77         1.6520   -0.1970   -2.9560 ho        1 MOL      0.426531
    172 H78         0.8030    1.0640   -3.0150 ho        1 MOL      0.426531
    173 O25        -1.9800   -1.6490    1.3570 oh        1 MOL     -0.922962
    174 H79        -1.9900   -1.0670    2.1090 ho        1 MOL      0.426531
    175 H80        -2.8970   -1.6960    1.0800 ho        1 MOL      0.426531
@<TRIPOS>BOND
     1    1    2 1   
     2    1    4 1   
     3    1    5 1   
     4    1    6 1   
     5    2    3 2   
     6    2    7 1   
     7    7    8 1   
     8    7   15 1   
     9    8    9 1   
    10    8   11 1   
    11    8   16 1   
    12    9   10 2   
    13    9   19 1   
    14   11   12 1   
    15   11   17 1   
    16   11   18 1   
    17   12   13 1   
    18   12   14 1   
    19   19   20 1   
    20   19   24 1   
    21   20   21 1   
    22   20   23 1   
    23   20   25 1   
    24   21   22 2   
    25   21   29 1   
    26   23   26 1   
    27   23   27 1   
    28   23   28 1   
    29   29   30 1   
    30   29   37 1   
    31   30   31 1   
    32   30   33 1   
    33   30   38 1   
    34   31   32 2   
    35   31   41 1   
    36   33   34 1   
    37   33   39 1   
    38   33   40 1   
    39   34   35 1   
    40   34   36 1   
    41   41   42 1   
    42   41   45 1   
    43   42   43 1   
    44   42   46 1   
    45   42   47 1   
    46   43   44 2   
    47   43   48 1   
    48   48   49 1   
    49   48   56 1   
    50   49   50 1   
    51   49   52 1   
    52   49   57 1   
    53   50   51 2   
    54   50   62 1   
    55   52   53 1   
    56   52   58 1   
    57   52   59 1   
    58   53   54 1   
    59   53   55 2   
    60   54   60 1   
    61   54   61 1   
    62   62   63 1   
    63   62   66 1   
    64   63   64 1   
    65   63   67 1   
    66   63   68 1   
    67   64   65 2   
    68   64   69 1   
    69   69   70 1   
    70   69   76 1   
    71   70   71 1   
    72   70   73 1   
    73   70   77 1   
    74   71   72 2   
    75   71   83 1   
    76   73   74 1   
    77   73   75 1   
    78   73   78 1   
    79   74   80 1   
    80   74   81 1   
    81   74   82 1   
    82   75   79 1   
    83   83   84 1   
    84   83   91 1   
    85   84   85 1   
    86   84   87 1   
    87   84   92 1   
    88   85   86 2   
    89   85  102 1   
    90   87   88 1   
    91   87   89 1   
    92   87   93 1   
    93   88   90 1   
    94   88   94 1   
    95   88   95 1   
    96   89   96 1   
    97   89   97 1   
    98   89   98 1   
    99   90   99 1   
   100   90  100 1   
   101   90  101 1   
   102  102  103 1   
   103  102  110 1   
   104  103  104 1   
   105  103  106 1   
   106  103  111 1   
   107  104  105 2   
   108  104  114 1   
   109  106  107 1   
   110  106  112 1   
   111  106  113 1   
   112  107  108 1   
   113  107  109 1   
   114  114  115 1   
   115  114  125 1   
   116  115  116 1   
   117  115  118 1   
   118  115  126 1   
   119  116  117 2   
   120  116  134 1   
   121  118  119 1   
   122  118  127 1   
   123  118  128 1   
   124  119  120 ar  
   125  119  121 ar  
   126  120  122 ar  
   127  120  129 1   
   128  121  123 ar  
   129  121  130 1   
   130  122  124 ar  
   131  122  131 1   
   132  123  124 ar  
   133  123  132 1   
   134  124  133 1   
   135  134  135 1   
   136  134  140 1   
   137  135  136 1   
   138  135  138 1   
   139  135  141 1   
   140  136  137 2   
   141  136  148 1   
   142  138  139 1   
   143  138  142 1   
   144  138  143 1   
   145  139  140 1   
   146  139  144 1   
   147  139  145 1   
   148  140  146 1   
   149  140  147 1   
   150  148  149 1   
   151  148  157 1   
   152  149  150 1   
   153  149  152 1   
   154  149  158 1   
   155  150  151 2   
   156  150  163 1   
   157  152  153 1   
   158  152  159 1   
   159  152  160 1   
   160  153  154 1   
   161  153  161 1   
   162  153  162 1   
   163  154  155 1   
   164  154  156 1   
   165  163  164 1   
   166  163  168 1   
   167  164  165 1   
   168  164  166 1   
   169  164  167 1   
   170  170  171 1   
   171  170  172 1   
   172  173  174 1   
   173  173  175 1   
@<TRIPOS>SUBSTRUCTURE
     1 MOL         1 TEMP              0 ****  ****    0 ROOT
