@<TRIPOS>MOLECULE
MOL
  184   179     1     0     0
SMALL
resp


@<TRIPOS>ATOM
      1 C1          2.2970   -1.9240    3.8220 c3        1 MOL     -0.396409
      2 C2          3.4340   -0.8750    3.5830 c         1 MOL      0.666550
      3 O1          3.2040    0.1810    2.9740 o         1 MOL     -0.537353
      4 H1          1.6700   -1.5970    4.6510 hc        1 MOL      0.097941
      5 H2          1.6890   -2.0130    2.9210 hc        1 MOL      0.097941
      6 H3          2.7380   -2.8920    4.0600 hc        1 MOL      0.097941
      7 N1          4.6850   -1.1970    3.9980 n         1 MOL     -0.564272
      8 C3          5.8120   -0.2890    3.8270 c3        1 MOL      0.173573
      9 C4          6.2640   -0.3670    2.3650 c         1 MOL      0.354126
     10 O2          6.4930    0.6980    1.7610 o         1 MOL     -0.483813
     11 C5          7.0300   -0.7650    4.7090 c3        1 MOL     -0.175890
     12 C6          8.3650    0.0270    4.4420 c         1 MOL      0.662141
     13 O3          9.0940   -0.3170    3.4360 o         1 MOL     -0.692164
     14 O4          8.7230    0.9550    5.2410 o         1 MOL     -0.692164
     15 H4          4.7960   -2.1190    4.3950 hn        1 MOL      0.297579
     16 H5          5.5160    0.7180    4.1040 h1        1 MOL      0.091498
     17 H6          7.1100   -1.8500    4.6500 hc        1 MOL     -0.000436
     18 H7          6.7820   -0.5710    5.7520 hc        1 MOL     -0.000436
     19 N2          6.2890   -1.5620    1.7730 n         1 MOL     -0.300999
     20 C7          6.4680   -1.9300    0.3910 c3        1 MOL      0.106645
     21 C8          5.5320   -1.2300   -0.5980 c         1 MOL      0.531161
     22 O5          4.3950   -1.5860   -0.6910 o         1 MOL     -0.550623
     23 C9          7.9560   -1.7200    0.0680 c3        1 MOL     -0.281936
     24 H8          6.0340   -2.3120    2.3900 hn        1 MOL      0.232931
     25 H9          6.3450   -3.0080    0.3510 h1        1 MOL      0.041684
     26 H10         8.2640   -0.6770    0.1060 hc        1 MOL      0.077435
     27 H11         8.5940   -2.2000    0.8070 hc        1 MOL      0.077435
     28 H12         8.1320   -2.0780   -0.9560 hc        1 MOL      0.077435
     29 N3          6.1250   -0.2610   -1.3890 n         1 MOL     -0.325644
     30 C10         5.2990    0.5170   -2.3460 c3        1 MOL      0.040734
     31 C11         5.5570    2.0030   -2.3370 c         1 MOL      0.418964
     32 O6          5.5230    2.7250   -3.3550 o         1 MOL     -0.497220
     33 C12         5.2730   -0.0530   -3.7050 c3        1 MOL     -0.112917
     34 C13         4.7810   -1.5360   -3.6540 c         1 MOL      0.647823
     35 O7          3.5300   -1.6720   -3.5630 o         1 MOL     -0.706507
     36 O8          5.5800   -2.4760   -3.7140 o         1 MOL     -0.706507
     37 H13         7.0730    0.0740   -1.2780 hn        1 MOL      0.219271
     38 H14         4.2910    0.5500   -1.9250 h1        1 MOL      0.118839
     39 H15         6.2950    0.0020   -4.0810 hc        1 MOL      0.033486
     40 H16         4.7080    0.5170   -4.4500 hc        1 MOL      0.033486
     41 N4          5.8550    2.5980   -1.1380 n         1 MOL     -0.227189
     42 C14         5.7800    4.0060   -0.8180 c3        1 MOL     -0.163061
     43 C15         4.3800    4.5910   -1.1450 c         1 MOL      0.673853
     44 O9          4.2880    5.7960   -1.4810 o         1 MOL     -0.602813
     45 H17         5.9710    1.9640   -0.3650 hn        1 MOL      0.194178
     46 H18         6.3950    4.5560   -1.5290 h1        1 MOL      0.093038
     47 H19         6.0380    4.2410    0.2180 h1        1 MOL      0.093038
     48 N5          3.2240    3.8610   -1.1070 n         1 MOL     -0.487673
     49 C16         1.9470    4.3770   -1.6830 c3        1 MOL      0.192189
     50 C17         1.2630    5.3750   -0.7790 c         1 MOL      0.467888
     51 O10         1.2580    5.2170    0.4480 o         1 MOL     -0.559143
     52 C18         0.9660    3.2980   -2.2070 c3        1 MOL     -0.444147
     53 C19         1.6570    2.3920   -3.2510 c         1 MOL      0.620358
     54 N6          1.9720    1.1220   -2.9880 n         1 MOL     -0.552507
     55 O11         1.9490    2.8140   -4.3640 o         1 MOL     -0.585832
     56 H20         3.2660    2.8870   -0.8280 hn        1 MOL      0.283258
     57 H21         2.2780    4.9710   -2.5290 h1        1 MOL      0.054324
     58 H22         0.0870    3.8130   -2.5910 hc        1 MOL      0.157100
     59 H23         0.6390    2.6400   -1.4010 hc        1 MOL      0.157100
     60 H24         1.5730    0.6480   -2.1850 hn        1 MOL      0.259468
     61 H25         2.3010    0.5410   -3.7410 hn        1 MOL      0.259468
     62 N7          0.7180    6.4230   -1.3010 n         1 MOL     -0.327476
     63 C20        -0.0360    7.4400   -0.5060 c3        1 MOL     -0.102793
     64 C21        -1.5300    7.0930   -0.5390 c         1 MOL      0.602040
     65 O12        -1.8740    6.4310   -1.5040 o         1 MOL     -0.509980
     66 H26         0.7880    6.4870   -2.3070 hn        1 MOL      0.252778
     67 H27         0.0830    8.4410   -0.9060 h1        1 MOL      0.088606
     68 H28         0.3800    7.5060    0.4970 h1        1 MOL      0.088606
     69 N8         -2.3330    7.5330    0.4380 n         1 MOL     -0.477542
     70 C22        -3.7660    7.2700    0.3570 c3        1 MOL     -0.365944
     71 C23        -4.1970    5.8670    0.7370 c         1 MOL      0.536837
     72 O13        -5.3810    5.6170    0.8950 o         1 MOL     -0.564269
     73 C24        -4.5350    8.3460    1.1040 c3        1 MOL      0.664746
     74 C25        -4.5050    8.3350    2.6110 c3        1 MOL     -0.299447
     75 O14        -4.2960    9.6420    0.7020 oh        1 MOL     -0.666023
     76 H29        -1.9310    8.1600    1.1200 hn        1 MOL      0.273504
     77 H30        -4.0540    7.3950   -0.6890 h1        1 MOL      0.166103
     78 H31        -5.5880    8.1800    0.8790 h1        1 MOL     -0.013531
     79 H32        -3.3880    9.7960    0.9460 ho        1 MOL      0.372363
     80 H33        -3.5180    8.0800    3.0000 hc        1 MOL      0.058238
     81 H34        -4.7250    9.2870    3.0810 hc        1 MOL      0.058238
     82 H35        -5.2980    7.6360    2.9040 hc        1 MOL      0.058238
     83 N9         -3.2770    4.8850    0.9540 n         1 MOL     -0.127967
     84 C26        -3.4570    3.4530    1.1130 c3        1 MOL     -0.100724
     85 C27        -2.3630    2.7210    0.3270 c         1 MOL      0.444743
     86 O15        -1.3070    3.3350    0.0440 o         1 MOL     -0.405603
     87 C28        -3.4270    3.1200    2.6150 c3        1 MOL      0.121551
     88 C29        -2.2040    3.6860    3.4460 c3        1 MOL      0.034278
     89 C30        -4.6340    3.7380    3.3350 c3        1 MOL     -0.308593
     90 C31        -1.9740    3.0190    4.7950 c3        1 MOL     -0.514116
     91 H36        -2.3240    5.2170    0.8810 hn        1 MOL      0.126873
     92 H37        -4.4370    3.2380    0.6900 h1        1 MOL      0.083804
     93 H38        -3.5330    2.0400    2.6520 hc        1 MOL     -0.000493
     94 H39        -2.2780    4.7730    3.4510 hc        1 MOL      0.064964
     95 H40        -1.2960    3.4320    2.8870 hc        1 MOL      0.064964
     96 H41        -4.8430    3.4540    4.3690 hc        1 MOL      0.072616
     97 H42        -4.5660    4.8150    3.1760 hc        1 MOL      0.072616
     98 H43        -5.5010    3.3270    2.8150 hc        1 MOL      0.072616
     99 H44        -1.9530    1.9390    4.6510 hc        1 MOL      0.137208
    100 H45        -0.9340    3.1740    5.1130 hc        1 MOL      0.137208
    101 H46        -2.7300    3.3670    5.5010 hc        1 MOL      0.137208
    102 N10        -2.5630    1.4120    0.0190 n         1 MOL     -0.547363
    103 C32        -1.6710    0.5730   -0.7480 c3        1 MOL      0.213780
    104 C33        -2.4390   -0.3230   -1.7000 c         1 MOL      0.339479
    105 O16        -1.9650   -0.5830   -2.8620 o         1 MOL     -0.535593
    106 C34        -1.0140   -0.3270    0.2300 c3        1 MOL     -0.214571
    107 C35         0.0480   -1.1330   -0.4790 c         1 MOL      0.856633
    108 O17         1.0980   -0.5930   -0.9130 o         1 MOL     -0.781819
    109 O18         0.0340   -2.3560   -0.4640 o         1 MOL     -0.781819
    110 H47        -3.4350    1.0010    0.3020 hn        1 MOL      0.311090
    111 H48        -0.9290    1.1130   -1.3310 h1        1 MOL      0.084285
    112 H49        -1.7180   -1.0060    0.7210 hc        1 MOL      0.074318
    113 H50        -0.5090    0.2990    0.9740 hc        1 MOL      0.074318
    114 N11        -3.6350   -0.8130   -1.2980 n         1 MOL     -0.172601
    115 C36        -4.4300   -1.8420   -2.0390 c3        1 MOL      0.171789
    116 C37        -4.9180   -2.9830   -1.1120 c         1 MOL      0.049054
    117 O19        -5.1890   -2.6910    0.0430 o         1 MOL     -0.337400
    118 C38        -5.5570   -1.1380   -2.8770 c3        1 MOL     -0.218176
    119 C39        -6.3430   -0.2080   -1.8940 ca        1 MOL      0.122801
    120 C40        -7.3660   -0.7380   -1.0750 ca        1 MOL     -0.182757
    121 C41        -6.0650    1.1290   -1.8970 ca        1 MOL     -0.182757
    122 C42        -8.0920    0.0400   -0.2010 ca        1 MOL     -0.126473
    123 C43        -6.9350    1.9840   -1.2410 ca        1 MOL     -0.126473
    124 C44        -7.9000    1.4760   -0.3180 ca        1 MOL     -0.125253
    125 H51        -3.8500   -0.5280   -0.3600 hn        1 MOL      0.209332
    126 H52        -3.8420   -2.2980   -2.8370 h1        1 MOL      0.010562
    127 H53        -6.2950   -1.8430   -3.2630 hc        1 MOL      0.100785
    128 H54        -5.2040   -0.5220   -3.7060 hc        1 MOL      0.100785
    129 H55        -7.4420   -1.8210   -1.0940 ha        1 MOL      0.126444
    130 H56        -5.2750    1.5030   -2.5410 ha        1 MOL      0.126444
    131 H57        -8.8490   -0.3610    0.4520 ha        1 MOL      0.129168
    132 H58        -6.7360    3.0540   -1.2360 ha        1 MOL      0.129168
    133 H59        -8.4550    2.1510    0.3080 ha        1 MOL      0.115395
    134 N12        -5.1020   -4.1730   -1.6290 n         1 MOL      0.068801
    135 C45        -5.6010   -5.3560   -0.9160 c3        1 MOL      0.001007
    136 C46        -5.1940   -5.5210    0.5430 c         1 MOL      0.287606
    137 O20        -6.0710   -6.0400    1.2980 o         1 MOL     -0.504951
    138 C47        -5.0900   -6.5790   -1.6600 c3        1 MOL      0.269871
    139 C48        -5.0410   -6.1230   -3.0750 c3        1 MOL     -0.098312
    140 C49        -4.6260   -4.6420   -2.8880 c3        1 MOL     -0.313020
    141 H60        -6.6890   -5.3800   -1.0110 h1        1 MOL      0.053352
    142 H61        -4.1020   -6.7500   -1.2230 hc        1 MOL     -0.049276
    143 H62        -5.5760   -7.5440   -1.5420 hc        1 MOL     -0.049276
    144 H63        -4.3450   -6.7270   -3.6580 hc        1 MOL      0.049238
    145 H64        -6.0360   -6.1910   -3.5190 hc        1 MOL      0.049238
    146 H65        -3.5520   -4.6420   -3.0480 h1        1 MOL      0.127639
    147 H66        -5.0620   -4.0900   -3.7260 h1        1 MOL      0.127639
    148 N13        -3.9350   -5.4190    0.9290 n         1 MOL     -0.111225
    149 C50        -3.5350   -5.6160    2.3860 c3        1 MOL     -0.358587
    150 C51        -4.2730   -4.6170    3.2870 c         1 MOL      0.586746
    151 O21        -4.5880   -5.0390    4.3770 o         1 MOL     -0.538274
    152 C52        -1.9890   -5.5870    2.6010 c3        1 MOL      0.100733
    153 C53        -1.3380   -6.7870    1.8850 c3        1 MOL     -0.040626
    154 C54         0.1620   -6.6690    2.1280 c         1 MOL      0.625572
    155 O22         1.0100   -6.3150    1.2860 o         1 MOL     -0.683926
    156 O23         0.5820   -7.0310    3.2910 o         1 MOL     -0.683926
    157 H67        -3.2290   -5.1690    0.2520 hn        1 MOL      0.250600
    158 H68        -3.9010   -6.6190    2.6080 h1        1 MOL      0.190236
    159 H69        -1.8360   -5.6300    3.6740 hc        1 MOL      0.025246
    160 H70        -1.4960   -4.6850    2.2370 hc        1 MOL      0.025246
    161 H71        -1.5020   -6.7560    0.8140 hc        1 MOL     -0.026617
    162 H72        -1.7430   -7.7420    2.2410 hc        1 MOL     -0.026617
    163 N14        -4.5500   -3.3860    2.8460 n         1 MOL     -0.245116
    164 C55        -5.2520   -2.3770    3.6290 c3        1 MOL     -0.276643
    165 H73        -5.2820   -2.6840    4.6740 h1        1 MOL      0.118734
    166 H74        -4.7300   -1.4240    3.5460 h1        1 MOL      0.118734
    167 H75        -6.2690   -2.2680    3.2540 h1        1 MOL      0.118734
    168 H76        -4.3830   -3.2650    1.8580 hn        1 MOL      0.155223
    169 Ca1         2.2070   -3.0150   -1.9150 Ca        1 MOL      1.768129
    170 O24         1.3550   -5.7310   -1.4790 oh        1 MOL     -0.855865
    171 H77         0.7550   -6.3990   -1.8090 ho        1 MOL      0.409415
    172 H78         1.4210   -5.9210   -0.5370 ho        1 MOL      0.409415
    173 O25         2.5640   -4.0810    0.8470 oh        1 MOL     -0.855865
    174 H79         1.9230   -4.7750    1.0180 ho        1 MOL      0.409415
    175 H80         3.2290   -4.1890    1.5270 ho        1 MOL      0.409415
    176 O26         0.3060   -2.0290   -3.6750 oh        1 MOL     -0.855865
    177 H81        -0.5080   -1.5480   -3.5200 ho        1 MOL      0.409415
    178 H82         0.1400   -2.5460   -4.4640 ho        1 MOL      0.409415
    179 O27         4.4400   -4.4440   -2.0850 oh        1 MOL     -0.855865
    180 H83         4.8690   -5.3040   -2.0340 ho        1 MOL      0.409415
    181 H84         5.0360   -3.9060   -2.6020 ho        1 MOL      0.409415
    182 O28         1.7760   -4.5000   -4.1830 oh        1 MOL     -0.855865
    183 H85         1.8070   -3.8760   -4.9120 ho        1 MOL      0.409415
    184 H86         2.1430   -5.3080   -4.5490 ho        1 MOL      0.409415
@<TRIPOS>BOND
     1    1    2 1   
     2    1    4 1   
     3    1    5 1   
     4    1    6 1   
     5    2    3 2   
     6    2    7 1   
     7    7    8 1   
     8    7   15 1   
     9    8    9 1   
    10    8   11 1   
    11    8   16 1   
    12    9   10 2   
    13    9   19 1   
    14   11   12 1   
    15   11   17 1   
    16   11   18 1   
    17   12   13 1   
    18   12   14 1   
    19   19   20 1   
    20   19   24 1   
    21   20   21 1   
    22   20   23 1   
    23   20   25 1   
    24   21   22 2   
    25   21   29 1   
    26   23   26 1   
    27   23   27 1   
    28   23   28 1   
    29   29   30 1   
    30   29   37 1   
    31   30   31 1   
    32   30   33 1   
    33   30   38 1   
    34   31   32 2   
    35   31   41 1   
    36   33   34 1   
    37   33   39 1   
    38   33   40 1   
    39   34   35 1   
    40   34   36 1   
    41   41   42 1   
    42   41   45 1   
    43   42   43 1   
    44   42   46 1   
    45   42   47 1   
    46   43   44 2   
    47   43   48 1   
    48   48   49 1   
    49   48   56 1   
    50   49   50 1   
    51   49   52 1   
    52   49   57 1   
    53   50   51 2   
    54   50   62 1   
    55   52   53 1   
    56   52   58 1   
    57   52   59 1   
    58   53   54 1   
    59   53   55 2   
    60   54   60 1   
    61   54   61 1   
    62   62   63 1   
    63   62   66 1   
    64   63   64 1   
    65   63   67 1   
    66   63   68 1   
    67   64   65 2   
    68   64   69 1   
    69   69   70 1   
    70   69   76 1   
    71   70   71 1   
    72   70   73 1   
    73   70   77 1   
    74   71   72 2   
    75   71   83 1   
    76   73   74 1   
    77   73   75 1   
    78   73   78 1   
    79   74   80 1   
    80   74   81 1   
    81   74   82 1   
    82   75   79 1   
    83   83   84 1   
    84   83   91 1   
    85   84   85 1   
    86   84   87 1   
    87   84   92 1   
    88   85   86 2   
    89   85  102 1   
    90   87   88 1   
    91   87   89 1   
    92   87   93 1   
    93   88   90 1   
    94   88   94 1   
    95   88   95 1   
    96   89   96 1   
    97   89   97 1   
    98   89   98 1   
    99   90   99 1   
   100   90  100 1   
   101   90  101 1   
   102  102  103 1   
   103  102  110 1   
   104  103  104 1   
   105  103  106 1   
   106  103  111 1   
   107  104  105 2   
   108  104  114 1   
   109  106  107 1   
   110  106  112 1   
   111  106  113 1   
   112  107  108 1   
   113  107  109 1   
   114  114  115 1   
   115  114  125 1   
   116  115  116 1   
   117  115  118 1   
   118  115  126 1   
   119  116  117 2   
   120  116  134 1   
   121  118  119 1   
   122  118  127 1   
   123  118  128 1   
   124  119  120 ar  
   125  119  121 ar  
   126  120  122 ar  
   127  120  129 1   
   128  121  123 ar  
   129  121  130 1   
   130  122  124 ar  
   131  122  131 1   
   132  123  124 ar  
   133  123  132 1   
   134  124  133 1   
   135  134  135 1   
   136  134  140 1   
   137  135  136 1   
   138  135  138 1   
   139  135  141 1   
   140  136  137 2   
   141  136  148 1   
   142  138  139 1   
   143  138  142 1   
   144  138  143 1   
   145  139  140 1   
   146  139  144 1   
   147  139  145 1   
   148  140  146 1   
   149  140  147 1   
   150  148  149 1   
   151  148  157 1   
   152  149  150 1   
   153  149  152 1   
   154  149  158 1   
   155  150  151 2   
   156  150  163 1   
   157  152  153 1   
   158  152  159 1   
   159  152  160 1   
   160  153  154 1   
   161  153  161 1   
   162  153  162 1   
   163  154  155 1   
   164  154  156 1   
   165  163  164 1   
   166  163  168 1   
   167  164  165 1   
   168  164  166 1   
   169  164  167 1   
   170  170  171 1   
   171  170  172 1   
   172  173  174 1   
   173  173  175 1   
   174  176  177 1   
   175  176  178 1   
   176  179  180 1   
   177  179  181 1   
   178  182  183 1   
   179  182  184 1   
@<TRIPOS>SUBSTRUCTURE
     1 MOL         1 TEMP              0 ****  ****    0 ROOT
