@<TRIPOS>MOLECULE
MOL
  189   185     1     0     0
SMALL
resp


@<TRIPOS>ATOM
      1 C1          4.7320    3.8160   -3.9710 c3        1 MOL     -0.534877
      2 C2          5.4270    3.1570   -2.7230 c         1 MOL      0.981825
      3 O1          4.7860    2.8810   -1.6930 o         1 MOL     -0.676241
      4 H1          3.8560    4.3750   -3.6450 hc        1 MOL      0.129012
      5 H2          5.4320    4.4920   -4.4630 hc        1 MOL      0.129012
      6 H3          4.4260    3.0380   -4.6700 hc        1 MOL      0.129012
      7 N1          6.7360    2.8360   -2.8130 n         1 MOL     -0.842132
      8 C3          7.3790    1.8060   -1.9790 c3        1 MOL      0.447733
      9 C4          6.4530    0.5720   -1.7270 c         1 MOL      0.152726
     10 O2          5.8090    0.4540   -0.6830 o         1 MOL     -0.396715
     11 C5          8.1050    2.3630   -0.7510 c3        1 MOL      0.011303
     12 C6          7.4360    3.5220    0.0460 c         1 MOL      0.710873
     13 O3          6.6820    3.1490    1.0020 o         1 MOL     -0.734718
     14 O4          7.5510    4.7150   -0.2510 o         1 MOL     -0.734718
     15 H4          7.3130    3.1690   -3.5810 hn        1 MOL      0.336675
     16 H5          8.1740    1.3430   -2.5670 h1        1 MOL     -0.013143
     17 H6          9.0730    2.7230   -1.0950 hc        1 MOL     -0.049998
     18 H7          8.2130    1.5490   -0.0270 hc        1 MOL     -0.049998
     19 N2          6.3760   -0.2610   -2.7500 n         1 MOL     -0.335378
     20 C7          5.5150   -1.4370   -2.8610 c3        1 MOL      0.067841
     21 C8          5.9140   -2.6780   -2.0160 c         1 MOL      0.377737
     22 O5          6.2660   -3.6970   -2.5570 o         1 MOL     -0.557976
     23 C9          4.0050   -1.1400   -2.7940 c3        1 MOL      0.431862
     24 C10         3.0870   -2.3290   -2.9340 c3        1 MOL      0.092888
     25 C11         3.6520   -0.0000   -3.8280 c3        1 MOL     -0.394028
     26 C12         3.0660   -2.8840   -4.3750 c3        1 MOL     -0.190273
     27 H8          6.9080   -0.0570   -3.5740 hn        1 MOL      0.267251
     28 H9          5.6720   -1.7650   -3.8970 h1        1 MOL      0.013426
     29 H10         3.8030   -0.7720   -1.7790 hc        1 MOL     -0.204946
     30 H11         2.0600   -2.1030   -2.6810 hc        1 MOL      0.017035
     31 H12         3.4190   -3.0370   -2.1730 hc        1 MOL      0.017035
     32 H13         3.9540   -0.3260   -4.8270 hc        1 MOL      0.066119
     33 H14         2.6050    0.2780   -3.7490 hc        1 MOL      0.066119
     34 H15         4.1800    0.9130   -3.5730 hc        1 MOL      0.066119
     35 H16         2.5180   -2.2580   -5.0810 hc        1 MOL      0.020908
     36 H17         4.0330   -3.0580   -4.8400 hc        1 MOL      0.020908
     37 H18         2.7160   -3.9070   -4.2600 hc        1 MOL      0.020908
     38 N3          6.0430   -2.5120   -0.6840 n         1 MOL     -0.057153
     39 C13         6.9590   -3.3130    0.1980 c3        1 MOL      0.101800
     40 C14         6.3720   -4.6900    0.6330 c         1 MOL      0.489651
     41 O6          7.1790   -5.6040    0.7480 o         1 MOL     -0.579221
     42 C15         7.3740   -2.5160    1.3790 c3        1 MOL     -0.263146
     43 C16         8.2420   -1.2470    1.0510 c         1 MOL      0.856304
     44 O7          8.3130   -0.4500    2.0230 o         1 MOL     -0.741620
     45 O8          8.8980   -1.1990   -0.0040 o         1 MOL     -0.741620
     46 H19         5.8060   -1.6240   -0.2660 hn        1 MOL      0.145813
     47 H20         7.8790   -3.5790   -0.3280 h1        1 MOL      0.037263
     48 H21         8.0720   -3.0780    1.9950 hc        1 MOL      0.068186
     49 H22         6.5170   -2.1690    1.9570 hc        1 MOL      0.068186
     50 N4          5.0630   -4.8960    0.9880 n         1 MOL     -0.461091
     51 C17         4.0480   -3.8900    0.9060 c3        1 MOL      0.128390
     52 C18         2.6870   -4.3750    1.4570 c         1 MOL      0.668754
     53 O9          2.2900   -5.5290    1.2520 o         1 MOL     -0.614807
     54 H23         4.7790   -5.7520    1.4440 hn        1 MOL      0.286862
     55 H24         3.9000   -3.5590   -0.1250 h1        1 MOL     -0.046290
     56 H25         4.5030   -3.0920    1.4960 h1        1 MOL     -0.046290
     57 N5          1.8960   -3.5270    2.1090 n         1 MOL     -0.502155
     58 C19         2.1010   -2.0900    2.5450 c3        1 MOL      0.174251
     59 C20         2.3690   -1.1540    1.3660 c         1 MOL      0.297697
     60 O10         3.5030   -0.6690    1.1540 o         1 MOL     -0.504735
     61 C21         3.0800   -1.9600    3.6560 c3        1 MOL     -0.365112
     62 C22         2.7660   -2.8160    4.8600 c         1 MOL      0.704829
     63 O11         1.5900   -2.9860    5.3040 o         1 MOL     -0.717090
     64 O12         3.7920   -3.2870    5.4320 o         1 MOL     -0.717090
     65 H26         0.9700   -3.8760    2.2970 hn        1 MOL      0.267916
     66 H27         1.1150   -1.8480    2.9290 h1        1 MOL      0.045607
     67 H28         3.0310   -0.9030    3.9480 hc        1 MOL      0.126083
     68 H29         4.1240   -2.1030    3.3750 hc        1 MOL      0.126083
     69 N6          1.3770   -0.8400    0.5460 n         1 MOL     -0.145269
     70 C23        -0.0640   -1.0320    0.6260 c3        1 MOL     -0.091572
     71 C24        -0.5950   -2.2320   -0.0900 c         1 MOL      0.348670
     72 O13        -0.0540   -2.6600   -1.1480 o         1 MOL     -0.498066
     73 H30         1.6900   -0.2720   -0.2260 hn        1 MOL      0.208416
     74 H31        -0.5260   -0.1490    0.1830 h1        1 MOL      0.103614
     75 H32        -0.3090   -1.1370    1.6930 h1        1 MOL      0.103614
     76 N7         -1.6930   -2.8370    0.3620 n         1 MOL     -0.209815
     77 C25        -2.3040   -4.0310   -0.3430 c3        1 MOL     -0.241774
     78 C26        -3.0340   -3.7330   -1.5860 c         1 MOL      0.482964
     79 O14        -3.1970   -4.5950   -2.4340 o         1 MOL     -0.559264
     80 C27        -3.2070   -4.8440    0.6590 c3        1 MOL      0.074605
     81 C28        -4.3510   -4.1030    1.4350 c3        1 MOL     -0.530376
     82 C29        -5.5650   -3.8000    0.5750 c         1 MOL      0.612286
     83 N8         -6.2030   -4.8710    0.0360 n         1 MOL     -0.780496
     84 O15        -5.8120   -2.6440    0.2630 o         1 MOL     -0.477568
     85 H33        -2.1820   -2.5170    1.1870 hn        1 MOL      0.240368
     86 H34        -1.5630   -4.7980   -0.5490 h1        1 MOL      0.202958
     87 H35        -2.6700   -5.2760    1.4950 hc        1 MOL      0.043842
     88 H36        -3.6330   -5.7820    0.2890 hc        1 MOL      0.043842
     89 H37        -3.9800   -3.1530    1.7930 hc        1 MOL      0.188250
     90 H38        -4.6590   -4.7310    2.2760 hc        1 MOL      0.188250
     91 H39        -5.8400   -5.7840    0.2700 hn        1 MOL      0.378556
     92 H40        -6.9780   -4.6910   -0.5910 hn        1 MOL      0.378556
     93 N9         -3.4360   -2.5210   -1.8670 n         1 MOL     -0.116442
     94 C30        -3.8300   -1.9700   -3.1980 c3        1 MOL     -0.144943
     95 C31        -5.1890   -1.2000   -3.2050 c         1 MOL      0.311646
     96 O16        -5.5550   -0.7380   -4.2640 o         1 MOL     -0.537113
     97 C32        -2.7570   -1.0800   -3.8060 c3        1 MOL      0.351316
     98 C33        -1.4460   -1.7110   -4.2800 c3        1 MOL     -0.301823
     99 C34        -2.3020    0.0600   -2.8960 c3        1 MOL     -0.301823
    100 H41        -3.3290   -1.8090   -1.1610 hn        1 MOL      0.127534
    101 H42        -3.9790   -2.7850   -3.8950 h1        1 MOL      0.127886
    102 H43        -3.1570   -0.5860   -4.6880 hc        1 MOL     -0.037717
    103 H44        -0.7600   -0.9480   -4.6390 hc        1 MOL      0.068357
    104 H45        -1.0070   -2.2090   -3.4110 hc        1 MOL      0.068357
    105 H46        -1.7290   -2.4760   -5.0070 hc        1 MOL      0.068357
    106 H47        -1.6220    0.7210   -3.4370 hc        1 MOL      0.068357
    107 H48        -3.1520    0.6740   -2.6230 hc        1 MOL      0.068357
    108 H49        -1.7640   -0.3960   -2.0610 hc        1 MOL      0.068357
    109 N10        -5.9320   -1.1910   -2.1280 n         1 MOL     -0.106473
    110 C35        -7.3020   -0.5690   -2.1250 c3        1 MOL      0.130480
    111 C36        -7.2840    0.7880   -1.4520 c         1 MOL      0.429316
    112 O17        -8.3070    1.4330   -1.6250 o         1 MOL     -0.555697
    113 C37        -8.3650   -1.5510   -1.5430 c3        1 MOL     -0.230883
    114 C38        -8.6300   -2.8250   -2.3780 c         1 MOL      0.645743
    115 N11        -8.8420   -2.8020   -3.6840 n         1 MOL     -0.772734
    116 O18        -8.6750   -3.9200   -1.8440 o         1 MOL     -0.578429
    117 H50        -5.7300   -1.7240   -1.2990 hn        1 MOL      0.138838
    118 H51        -7.6870   -0.3670   -3.1280 h1        1 MOL      0.038989
    119 H52        -9.1880   -0.8730   -1.3220 hc        1 MOL      0.057264
    120 H53        -7.9600   -1.9380   -0.6080 hc        1 MOL      0.057264
    121 H54        -8.9150   -1.9400   -4.1970 hn        1 MOL      0.372017
    122 H55        -8.8230   -3.7470   -4.0460 hn        1 MOL      0.372017
    123 N12        -6.2860    1.1390   -0.7060 n         1 MOL     -0.381623
    124 C39        -6.3260    2.3250    0.0970 c3        1 MOL      0.478654
    125 C40        -4.8800    2.8360    0.4140 c         1 MOL      0.139509
    126 O19        -3.8780    2.2030    0.1050 o         1 MOL     -0.438031
    127 C41        -7.1780    2.1170    1.3450 c3        1 MOL      0.037193
    128 C42        -7.1420    0.8080    2.0380 ca        1 MOL     -0.198719
    129 C43        -8.2080   -0.0730    1.9810 ca        1 MOL      0.110164
    130 C44        -6.0120    0.6070    2.8640 ca        1 MOL      0.110164
    131 C45        -8.1770   -1.2900    2.7430 ca        1 MOL     -0.498560
    132 C46        -5.9770   -0.5770    3.6130 ca        1 MOL     -0.498560
    133 C47        -7.0400   -1.5100    3.5320 ca        1 MOL      0.518044
    134 O20        -6.9640   -2.6540    4.2120 oh        1 MOL     -0.477782
    135 H56        -5.4450    0.5840   -0.6460 hn        1 MOL      0.217456
    136 H57        -6.7900    3.1050   -0.5140 h1        1 MOL     -0.038089
    137 H58        -8.1810    2.4700    1.1280 hc        1 MOL     -0.022459
    138 H59        -6.8720    2.8430    2.1030 hc        1 MOL     -0.022459
    139 H60        -9.0840    0.0430    1.3730 ha        1 MOL      0.061963
    140 H61        -5.2900    1.4060    2.9380 ha        1 MOL      0.061963
    141 H62        -8.9520   -2.0220    2.5940 ha        1 MOL      0.216168
    142 H63        -5.1590   -0.7470    4.2980 ha        1 MOL      0.216168
    143 H64        -7.6830   -3.2480    3.9460 ho        1 MOL      0.320750
    144 N13        -4.8180    3.9510    1.1360 n         1 MOL     -0.350771
    145 C48        -3.6730    4.5860    1.8290 c3        1 MOL      0.037768
    146 C49        -2.5040    5.0360    0.9400 c         1 MOL      0.307678
    147 O21        -1.8620    6.0560    1.2400 o         1 MOL     -0.494326
    148 C50        -3.4230    3.7190    3.1030 c3        1 MOL      0.064680
    149 C51        -2.2440    4.3570    3.8280 c3        1 MOL     -0.545896
    150 C52        -2.0180    3.6300    5.1740 c         1 MOL      0.813808
    151 O22        -1.3590    2.5720    5.2400 o         1 MOL     -0.748228
    152 O23        -2.6410    4.0960    6.1530 o         1 MOL     -0.748228
    153 H65        -5.6880    4.4180    1.3130 hn        1 MOL      0.232972
    154 H66        -4.0760    5.5330    2.1950 h1        1 MOL      0.091876
    155 H67        -3.3800    2.6780    2.8130 hc        1 MOL      0.075655
    156 H68        -4.2810    3.8670    3.7580 hc        1 MOL      0.075655
    157 H69        -2.4250    5.4140    4.0520 hc        1 MOL      0.123432
    158 H70        -1.3590    4.3970    3.2040 hc        1 MOL      0.123432
    159 N14        -2.1340    4.2770   -0.1220 n         1 MOL     -0.190225
    160 C53        -1.0850    4.5860   -1.1070 c3        1 MOL     -0.285678
    161 C54        -1.5480    5.6270   -2.2010 c         1 MOL      0.523300
    162 O24        -0.7840    6.0860   -3.0260 o         1 MOL     -0.533786
    163 C55        -0.5160    3.4180   -1.9630 c3        1 MOL      0.054290
    164 C56        -0.1100    2.2190   -1.1460 c3        1 MOL     -0.158733
    165 C57         0.9570    2.4610   -0.0070 c         1 MOL      0.680697
    166 O25         0.6700    2.8350    1.1920 o         1 MOL     -0.650253
    167 O26         2.1090    1.9320   -0.0970 o         1 MOL     -0.650253
    168 H71        -2.5150    3.3450   -0.0410 hn        1 MOL      0.225415
    169 H72        -0.2410    4.9570   -0.5390 h1        1 MOL      0.204779
    170 H73         0.3870    3.8150   -2.4240 hc        1 MOL      0.016139
    171 H74        -1.2640    3.1180   -2.7060 hc        1 MOL      0.016139
    172 H75         0.2320    1.4390   -1.8250 hc        1 MOL      0.071072
    173 H76        -0.9960    1.8610   -0.6280 hc        1 MOL      0.071072
    174 N15        -2.8150    6.0250   -2.1710 n         1 MOL     -0.212587
    175 C58        -3.3090    7.0260   -3.0770 c3        1 MOL     -0.276599
    176 H77        -4.3940    7.0870   -2.9930 h1        1 MOL      0.101606
    177 H78        -2.8710    7.9920   -2.8260 h1        1 MOL      0.101606
    178 H79        -3.0390    6.7570   -4.0980 h1        1 MOL      0.101606
    179 H80        -3.4260    5.7130   -1.4330 hn        1 MOL      0.230078
    180 Ca1         4.4530    1.9800    0.9120 Ca        1 MOL      1.712931
    181 O27         6.0370    0.7270    2.7680 oh        1 MOL     -0.918667
    182 H81         6.1220    0.9840    3.6820 ho        1 MOL      0.430926
    183 H82         6.9360    0.4780    2.5110 ho        1 MOL      0.430926
    184 O28         4.1870    4.5050    1.2570 oh        1 MOL     -0.918667
    185 H83         3.5360    4.9540    1.7880 ho        1 MOL      0.430926
    186 H84         4.9270    5.1170    1.2130 ho        1 MOL      0.430926
    187 O29         2.6970    2.0900    2.9850 oh        1 MOL     -0.918667
    188 H85         1.9160    2.4660    2.5670 ho        1 MOL      0.430926
    189 H86         2.4130    1.8700    3.8670 ho        1 MOL      0.430926
@<TRIPOS>BOND
     1    1    2 1   
     2    1    4 1   
     3    1    5 1   
     4    1    6 1   
     5    2    3 2   
     6    2    7 1   
     7    7    8 1   
     8    7   15 1   
     9    8    9 1   
    10    8   11 1   
    11    8   16 1   
    12    9   10 2   
    13    9   19 1   
    14   11   12 1   
    15   11   17 1   
    16   11   18 1   
    17   12   13 1   
    18   12   14 1   
    19   19   20 1   
    20   19   27 1   
    21   20   21 1   
    22   20   23 1   
    23   20   28 1   
    24   21   22 2   
    25   21   38 1   
    26   23   24 1   
    27   23   25 1   
    28   23   29 1   
    29   24   26 1   
    30   24   30 1   
    31   24   31 1   
    32   25   32 1   
    33   25   33 1   
    34   25   34 1   
    35   26   35 1   
    36   26   36 1   
    37   26   37 1   
    38   38   39 1   
    39   38   46 1   
    40   39   40 1   
    41   39   42 1   
    42   39   47 1   
    43   40   41 2   
    44   40   50 1   
    45   42   43 1   
    46   42   48 1   
    47   42   49 1   
    48   43   44 1   
    49   43   45 1   
    50   50   51 1   
    51   50   54 1   
    52   51   52 1   
    53   51   55 1   
    54   51   56 1   
    55   52   53 2   
    56   52   57 1   
    57   57   58 1   
    58   57   65 1   
    59   58   59 1   
    60   58   61 1   
    61   58   66 1   
    62   59   60 2   
    63   59   69 1   
    64   61   62 1   
    65   61   67 1   
    66   61   68 1   
    67   62   63 1   
    68   62   64 1   
    69   69   70 1   
    70   69   73 1   
    71   70   71 1   
    72   70   74 1   
    73   70   75 1   
    74   71   72 2   
    75   71   76 1   
    76   76   77 1   
    77   76   85 1   
    78   77   78 1   
    79   77   80 1   
    80   77   86 1   
    81   78   79 2   
    82   78   93 1   
    83   80   81 1   
    84   80   87 1   
    85   80   88 1   
    86   81   82 1   
    87   81   89 1   
    88   81   90 1   
    89   82   83 1   
    90   82   84 2   
    91   83   91 1   
    92   83   92 1   
    93   93   94 1   
    94   93  100 1   
    95   94   95 1   
    96   94   97 1   
    97   94  101 1   
    98   95   96 2   
    99   95  109 1   
   100   97   98 1   
   101   97   99 1   
   102   97  102 1   
   103   98  103 1   
   104   98  104 1   
   105   98  105 1   
   106   99  106 1   
   107   99  107 1   
   108   99  108 1   
   109  109  110 1   
   110  109  117 1   
   111  110  111 1   
   112  110  113 1   
   113  110  118 1   
   114  111  112 2   
   115  111  123 1   
   116  113  114 1   
   117  113  119 1   
   118  113  120 1   
   119  114  115 1   
   120  114  116 2   
   121  115  121 1   
   122  115  122 1   
   123  123  124 1   
   124  123  135 1   
   125  124  125 1   
   126  124  127 1   
   127  124  136 1   
   128  125  126 2   
   129  125  144 1   
   130  127  128 1   
   131  127  137 1   
   132  127  138 1   
   133  128  129 ar  
   134  128  130 ar  
   135  129  131 ar  
   136  129  139 1   
   137  130  132 ar  
   138  130  140 1   
   139  131  133 ar  
   140  131  141 1   
   141  132  133 ar  
   142  132  142 1   
   143  133  134 1   
   144  134  143 1   
   145  144  145 1   
   146  144  153 1   
   147  145  146 1   
   148  145  148 1   
   149  145  154 1   
   150  146  147 2   
   151  146  159 1   
   152  148  149 1   
   153  148  155 1   
   154  148  156 1   
   155  149  150 1   
   156  149  157 1   
   157  149  158 1   
   158  150  151 1   
   159  150  152 1   
   160  159  160 1   
   161  159  168 1   
   162  160  161 1   
   163  160  163 1   
   164  160  169 1   
   165  161  162 2   
   166  161  174 1   
   167  163  164 1   
   168  163  170 1   
   169  163  171 1   
   170  164  165 1   
   171  164  172 1   
   172  164  173 1   
   173  165  166 1   
   174  165  167 1   
   175  174  175 1   
   176  174  179 1   
   177  175  176 1   
   178  175  177 1   
   179  175  178 1   
   180  181  182 1   
   181  181  183 1   
   182  184  185 1   
   183  184  186 1   
   184  187  188 1   
   185  187  189 1   
@<TRIPOS>SUBSTRUCTURE
     1 MOL         1 TEMP              0 ****  ****    0 ROOT
