@<TRIPOS>MOLECULE
MOL
  192   187     1     0     0
SMALL
resp


@<TRIPOS>ATOM
      1 C1        -10.5700   -5.5360   -2.9350 c3        1 MOL     -0.409251
      2 C2        -10.6250   -4.1540   -2.4080 c         1 MOL      0.684271
      3 O1        -11.0170   -3.1980   -3.0540 o         1 MOL     -0.607246
      4 H1        -10.8680   -6.2340   -2.1530 hc        1 MOL      0.107735
      5 H2        -11.2490   -5.6290   -3.7830 hc        1 MOL      0.107735
      6 H3         -9.5530   -5.7630   -3.2560 hc        1 MOL      0.107735
      7 N1        -10.2040   -4.0660   -1.1270 n         1 MOL     -0.251464
      8 C3        -10.3060   -2.8820   -0.3030 c3        1 MOL     -0.142202
      9 C4         -9.0250   -2.1190   -0.4590 c         1 MOL      0.643519
     10 O2         -7.9220   -2.7630   -0.5530 o         1 MOL     -0.694021
     11 C5        -10.5400   -3.3710    1.1830 c3        1 MOL     -0.172358
     12 C6         -9.6230   -4.3960    1.7990 c         1 MOL      0.874042
     13 O3         -9.9410   -4.9030    2.9200 o         1 MOL     -0.732130
     14 O4         -8.6850   -4.9150    1.1320 o         1 MOL     -0.732130
     15 H4         -9.6960   -4.8240   -0.6990 hn        1 MOL      0.090016
     16 H5        -11.1130   -2.2560   -0.6890 h1        1 MOL      0.084219
     17 H6        -11.5540   -3.7580    1.1420 hc        1 MOL      0.063600
     18 H7        -10.4460   -2.5090    1.8370 hc        1 MOL      0.063600
     19 N2         -9.2130   -0.7800   -0.4940 n         1 MOL     -0.570313
     20 C7         -8.0570    0.1890   -0.6570 c3        1 MOL      0.145799
     21 C8         -7.3830    0.4790    0.6820 c         1 MOL      0.458877
     22 O5         -7.8590    1.1370    1.6400 o         1 MOL     -0.538905
     23 C9         -8.4830    1.4670   -1.4270 c3        1 MOL     -0.301055
     24 C10        -7.2930    2.5160   -1.5840 c3        1 MOL      0.074045
     25 C11        -7.6490    3.7110   -2.4240 c3        1 MOL      0.033399
     26 C12        -8.1800    3.4210   -3.8300 c3        1 MOL      0.001141
     27 N3         -9.4300    4.0860   -4.1950 n4        1 MOL     -0.214168
     28 H8        -10.1390   -0.4550   -0.2620 hn        1 MOL      0.353300
     29 H9         -7.3980   -0.1270   -1.4530 h1        1 MOL      0.093520
     30 H10        -9.3520    1.9670   -0.9900 hc        1 MOL      0.089809
     31 H11        -8.8370    1.1330   -2.3970 hc        1 MOL      0.089809
     32 H12        -6.4050    1.9420   -1.8800 hc        1 MOL      0.003953
     33 H13        -7.0650    2.8350   -0.5740 hc        1 MOL      0.003953
     34 H14        -6.6650    4.1800   -2.5290 hc        1 MOL      0.025914
     35 H15        -8.3600    4.3620   -1.9140 hc        1 MOL      0.025914
     36 H16        -8.3150    2.3400   -3.9220 hx        1 MOL      0.067234
     37 H17        -7.3700    3.7750   -4.4710 hx        1 MOL      0.067234
     38 H18       -10.2330    3.7790   -3.6680 hn        1 MOL      0.258593
     39 H19        -9.4030    5.0870   -4.1290 hn        1 MOL      0.258593
     40 H20        -9.6290    3.8600   -5.1590 hn        1 MOL      0.258593
     41 N4         -6.1780    0.0390    0.7360 n         1 MOL     -0.134226
     42 C13        -5.2060    0.2970    1.7950 c3        1 MOL      0.141488
     43 C14        -3.7510    0.1500    1.2290 c         1 MOL      0.162142
     44 O6         -3.5120   -0.5520    0.2880 o         1 MOL     -0.410107
     45 C15        -5.4710   -0.6060    2.9780 c3        1 MOL     -0.176279
     46 C16        -5.7810   -2.0120    2.4140 c         1 MOL      0.607066
     47 O7         -4.7710   -2.7030    2.1530 o         1 MOL     -0.631616
     48 O8         -6.9400   -2.4800    2.2770 o         1 MOL     -0.631616
     49 H21        -5.8680   -0.5560   -0.0150 hn        1 MOL      0.068756
     50 H22        -5.3270    1.3670    1.9430 h1        1 MOL      0.056894
     51 H23        -6.2700   -0.1650    3.5690 hc        1 MOL      0.060266
     52 H24        -4.6100   -0.5960    3.6540 hc        1 MOL      0.060266
     53 N5         -2.7680    0.7860    1.8500 n         1 MOL     -0.158612
     54 C17        -2.8230    1.7420    2.9990 c3        1 MOL     -0.215807
     55 C18        -2.9580    3.2340    2.5760 c         1 MOL      0.675004
     56 O9         -3.4770    3.6130    1.5590 o         1 MOL     -0.524502
     57 H25        -1.8770    0.7810    1.3780 hn        1 MOL      0.234658
     58 H26        -1.9350    1.5520    3.6000 h1        1 MOL      0.112696
     59 H27        -3.6700    1.5030    3.6400 h1        1 MOL      0.112696
     60 N6         -2.3540    4.1430    3.4230 n         1 MOL     -0.539042
     61 C19        -2.1210    5.5570    3.0070 c3        1 MOL      0.080017
     62 C20        -1.0060    5.6040    1.8810 c         1 MOL      0.483534
     63 O10         0.1100    5.0810    2.1020 o         1 MOL     -0.517291
     64 C21        -1.8310    6.3840    4.2930 c3        1 MOL     -0.225554
     65 C22        -1.6870    7.8770    4.0580 c         1 MOL      0.704376
     66 O11        -1.1490    8.6120    4.9250 o         1 MOL     -0.671147
     67 O12        -2.0690    8.3290    2.9390 o         1 MOL     -0.671147
     68 H28        -1.8200    3.7620    4.1900 hn        1 MOL      0.289823
     69 H29        -3.0460    5.8840    2.5340 h1        1 MOL      0.048806
     70 H30        -0.9580    6.0130    4.8210 hc        1 MOL      0.069415
     71 H31        -2.6700    6.2220    4.9790 hc        1 MOL      0.069415
     72 N7         -1.3390    6.0860    0.6680 n         1 MOL     -0.272580
     73 C23        -0.3640    6.1310   -0.4510 c3        1 MOL     -0.119072
     74 C24        -0.5710    4.9570   -1.4560 c         1 MOL      0.586426
     75 O13        -0.2530    5.0930   -2.6340 o         1 MOL     -0.571502
     76 H32        -2.2380    6.5380    0.5530 hn        1 MOL      0.252860
     77 H33         0.6510    5.9820   -0.0730 h1        1 MOL      0.101253
     78 H34        -0.5210    7.0540   -0.9920 h1        1 MOL      0.101253
     79 N8         -1.0940    3.8080   -0.9230 n         1 MOL     -0.522827
     80 C25        -1.3590    2.4850   -1.5900 c3        1 MOL      0.398010
     81 C26        -0.6160    1.3370   -0.8860 c         1 MOL      0.271326
     82 O14        -0.4850    1.4350    0.3210 o         1 MOL     -0.425283
     83 C27        -2.8620    2.2450   -1.7850 c3        1 MOL      0.453315
     84 C28        -3.5390    3.5030   -2.2540 c3        1 MOL     -0.361268
     85 O15        -3.0890    1.0740   -2.5770 oh        1 MOL     -0.676043
     86 H35        -1.5120    3.9820   -0.0240 hn        1 MOL      0.161322
     87 H36        -0.9920    2.5680   -2.6170 h1        1 MOL     -0.017544
     88 H37        -3.2820    1.9700   -0.8210 h1        1 MOL     -0.081679
     89 H38        -3.4260    0.4330   -1.9410 ho        1 MOL      0.366697
     90 H39        -3.0100    4.0240   -3.0610 hc        1 MOL      0.092182
     91 H40        -4.4760    3.3360   -2.7880 hc        1 MOL      0.092182
     92 H41        -3.7170    4.1820   -1.4200 hc        1 MOL      0.092182
     93 N9         -0.1780    0.2880   -1.5880 n         1 MOL     -0.075504
     94 C29         0.4520   -1.0050   -1.1060 c3        1 MOL     -0.726644
     95 C30         1.9230   -1.0080   -0.8000 c         1 MOL      0.812526
     96 O16         2.5370   -2.0360   -0.4040 o         1 MOL     -0.578578
     97 C31         0.0880   -2.2000   -1.9820 c3        1 MOL      0.415340
     98 C32         0.7590   -2.1630   -3.3300 c3        1 MOL      0.128086
     99 C33        -1.4570   -2.2390   -1.9470 c3        1 MOL     -0.283543
    100 C34         0.9240   -3.5630   -3.9820 c3        1 MOL     -0.302298
    101 H42        -0.2360    0.4250   -2.5930 hn        1 MOL      0.183177
    102 H43        -0.0050   -1.1550   -0.1260 h1        1 MOL      0.235248
    103 H44         0.4540   -3.0540   -1.4130 hc        1 MOL     -0.003252
    104 H45         1.7590   -1.7820   -3.1290 hc        1 MOL     -0.015261
    105 H46         0.1950   -1.5460   -4.0220 hc        1 MOL     -0.015261
    106 H47        -1.7450   -2.2730   -0.8970 hc        1 MOL      0.051358
    107 H48        -1.9290   -1.4020   -2.4650 hc        1 MOL      0.051358
    108 H49        -1.6990   -3.2290   -2.3430 hc        1 MOL      0.051358
    109 H50        -0.0360   -4.0550   -4.1610 hc        1 MOL      0.066815
    110 H51         1.5160   -3.3200   -4.8630 hc        1 MOL      0.066815
    111 H52         1.4030   -4.1950   -3.2400 hc        1 MOL      0.066815
    112 N10         2.5230    0.1530   -0.9390 n         1 MOL     -0.367945
    113 C35         3.8400    0.6700   -0.4970 c3        1 MOL     -0.005511
    114 C36         4.6380    1.1360   -1.6870 c         1 MOL      0.537049
    115 O17         4.1530    1.3710   -2.7680 o         1 MOL     -0.495972
    116 C37         3.7840    1.7670    0.5370 c3        1 MOL      0.203378
    117 C38         2.9490    2.9240    0.0340 c3        1 MOL     -0.181568
    118 O18         2.9780    1.2280    1.5960 oh        1 MOL     -0.557648
    119 H53         2.0450    0.9320   -1.3590 hn        1 MOL      0.175525
    120 H54         4.3580   -0.1570   -0.0120 h1        1 MOL      0.076874
    121 H55         4.7640    2.1850    0.7630 h1        1 MOL      0.023526
    122 H56         2.9800    1.9450    2.2290 ho        1 MOL      0.382826
    123 H57         3.3840    3.4370   -0.8220 hc        1 MOL      0.066886
    124 H58         1.9760    2.5130   -0.2210 hc        1 MOL      0.066886
    125 H59         2.8490    3.7010    0.8000 hc        1 MOL      0.066886
    126 N11         5.9910    1.1530   -1.5310 n         1 MOL     -0.480660
    127 C39         6.9950    1.5870   -2.4970 c3        1 MOL      0.012564
    128 C40         8.2040    0.6990   -2.5100 c         1 MOL      0.692680
    129 O19         8.6120    0.3100   -3.5550 o         1 MOL     -0.572187
    130 C41         7.3640    3.0550   -2.2030 c3        1 MOL      0.249563
    131 C42         8.5800    3.5830   -2.9910 c3        1 MOL     -0.498544
    132 O20         7.5730    3.1540   -0.8230 oh        1 MOL     -0.640888
    133 H60         6.3250    0.7810   -0.6510 hn        1 MOL      0.279653
    134 H61         6.5570    1.5590   -3.4940 h1        1 MOL      0.095212
    135 H62         6.4560    3.5960   -2.4580 h1        1 MOL      0.068329
    136 H63         7.8190    4.0410   -0.5520 ho        1 MOL      0.412388
    137 H64         8.4910    3.4890   -4.0700 hc        1 MOL      0.136962
    138 H65         8.6860    4.6540   -2.7960 hc        1 MOL      0.136962
    139 H66         9.4930    3.0770   -2.6630 hc        1 MOL      0.136962
    140 N12         8.8710    0.3420   -1.3950 n         1 MOL     -0.584857
    141 C43         9.9160   -0.6430   -1.3010 c3        1 MOL      0.158162
    142 C44         9.7570   -1.5500   -0.0730 c         1 MOL      0.567572
    143 O21         9.3090   -1.0630    0.9470 o         1 MOL     -0.533944
    144 C45        11.2490    0.1360   -1.2200 c3        1 MOL     -0.071573
    145 C46        11.4140    1.2690   -0.2690 c3        1 MOL      0.051377
    146 C47        12.9120    1.4470    0.2410 c3        1 MOL     -0.058936
    147 C48        13.2310    2.5360    1.2950 c3        1 MOL     -0.145897
    148 N13        12.9420    3.8840    0.7360 n4        1 MOL     -0.181807
    149 H67         8.4300    0.6540   -0.5370 hn        1 MOL      0.263193
    150 H68        10.0240   -1.3400   -2.1320 h1        1 MOL      0.055816
    151 H69        11.3670    0.5080   -2.2300 hc        1 MOL      0.024317
    152 H70        12.0880   -0.5530   -1.0680 hc        1 MOL      0.024317
    153 H71        10.9730    1.0070    0.6990 hc        1 MOL      0.009865
    154 H72        11.1160    2.2350   -0.6760 hc        1 MOL      0.009865
    155 H73        13.4700    1.5330   -0.6910 hc        1 MOL      0.052714
    156 H74        13.2570    0.5460    0.7580 hc        1 MOL      0.052714
    157 H75        14.3150    2.5310    1.4560 hx        1 MOL      0.146075
    158 H76        12.7270    2.4530    2.2580 hx        1 MOL      0.146075
    159 H77        13.0280    4.6160    1.4130 hn        1 MOL      0.228018
    160 H78        13.3920    3.9590   -0.1720 hn        1 MOL      0.228018
    161 H79        11.9510    3.9010    0.5020 hn        1 MOL      0.228018
    162 N14        10.1040   -2.7950   -0.2980 n         1 MOL     -0.460482
    163 C49        10.1000   -3.6420    0.9180 c3        1 MOL     -0.036315
    164 C50         8.6900   -3.9330    1.5380 c         1 MOL      0.501535
    165 O22         8.5770   -4.0800    2.7490 o         1 MOL     -0.523940
    166 C51        10.8190   -4.9900    0.7160 c3        1 MOL      0.118979
    167 C52        11.4260   -5.5460    1.9990 c3        1 MOL     -0.317207
    168 C53        12.5130   -6.6560    1.8140 c         1 MOL      0.699785
    169 O23        13.7030   -6.2580    1.9110 o         1 MOL     -0.650906
    170 O24        12.1970   -7.8190    1.4630 o         1 MOL     -0.650906
    171 H80        10.4770   -3.0640   -1.2050 hn        1 MOL      0.291466
    172 H81        10.6500   -3.0880    1.6870 h1        1 MOL      0.104089
    173 H82        11.5530   -4.9390   -0.0830 hc        1 MOL      0.014104
    174 H83        10.1280   -5.7420    0.3210 hc        1 MOL      0.014104
    175 H84        10.6050   -5.9220    2.6070 hc        1 MOL      0.072188
    176 H85        11.8370   -4.6710    2.4960 hc        1 MOL      0.072188
    177 N15         7.5280   -3.9060    0.7950 n         1 MOL     -0.396775
    178 C54         7.2260   -4.3000   -0.6160 c3        1 MOL     -0.026297
    179 H86         7.7520   -3.6330   -1.2990 h1        1 MOL      0.051187
    180 H87         7.5540   -5.3260   -0.7850 h1        1 MOL      0.051187
    181 H88         6.1540   -4.2270   -0.7920 h1        1 MOL      0.051187
    182 H89         6.6830   -3.8650    1.3500 hn        1 MOL      0.293049
    183 Ca1        -6.1950   -4.4720    0.7500 Ca        1 MOL      1.837227
    184 O25        -6.7630   -5.4680    3.1900 oh        1 MOL     -0.972621
    185 H90        -6.0450   -5.9450    3.6040 ho        1 MOL      0.461347
    186 H91        -7.5120   -5.6360    3.7560 ho        1 MOL      0.461347
    187 O26        -3.8040   -5.3030    1.5320 oh        1 MOL     -0.972621
    188 H92        -3.2930   -4.9680    2.2660 ho        1 MOL      0.461347
    189 H93        -3.1780   -5.7870    1.0020 ho        1 MOL      0.461347
    190 O27        -4.9530   -2.7760   -0.7960 oh        1 MOL     -0.972621
    191 H94        -4.5320   -1.9890   -0.4570 ho        1 MOL      0.461347
    192 H95        -5.2970   -2.5250   -1.6560 ho        1 MOL      0.461347
@<TRIPOS>BOND
     1    1    2 1   
     2    1    4 1   
     3    1    5 1   
     4    1    6 1   
     5    2    3 2   
     6    2    7 1   
     7    7    8 1   
     8    7   15 1   
     9    8    9 1   
    10    8   11 1   
    11    8   16 1   
    12    9   10 2   
    13    9   19 1   
    14   11   12 1   
    15   11   17 1   
    16   11   18 1   
    17   12   13 1   
    18   12   14 1   
    19   19   20 1   
    20   19   28 1   
    21   20   21 1   
    22   20   23 1   
    23   20   29 1   
    24   21   22 2   
    25   21   41 1   
    26   23   24 1   
    27   23   30 1   
    28   23   31 1   
    29   24   25 1   
    30   24   32 1   
    31   24   33 1   
    32   25   26 1   
    33   25   34 1   
    34   25   35 1   
    35   26   27 1   
    36   26   36 1   
    37   26   37 1   
    38   27   38 1   
    39   27   39 1   
    40   27   40 1   
    41   41   42 1   
    42   41   49 1   
    43   42   43 1   
    44   42   45 1   
    45   42   50 1   
    46   43   44 2   
    47   43   53 1   
    48   45   46 1   
    49   45   51 1   
    50   45   52 1   
    51   46   47 1   
    52   46   48 1   
    53   53   54 1   
    54   53   57 1   
    55   54   55 1   
    56   54   58 1   
    57   54   59 1   
    58   55   56 2   
    59   55   60 1   
    60   60   61 1   
    61   60   68 1   
    62   61   62 1   
    63   61   64 1   
    64   61   69 1   
    65   62   63 2   
    66   62   72 1   
    67   64   65 1   
    68   64   70 1   
    69   64   71 1   
    70   65   66 1   
    71   65   67 1   
    72   72   73 1   
    73   72   76 1   
    74   73   74 1   
    75   73   77 1   
    76   73   78 1   
    77   74   75 2   
    78   74   79 1   
    79   79   80 1   
    80   79   86 1   
    81   80   81 1   
    82   80   83 1   
    83   80   87 1   
    84   81   82 2   
    85   81   93 1   
    86   83   84 1   
    87   83   85 1   
    88   83   88 1   
    89   84   90 1   
    90   84   91 1   
    91   84   92 1   
    92   85   89 1   
    93   93   94 1   
    94   93  101 1   
    95   94   95 1   
    96   94   97 1   
    97   94  102 1   
    98   95   96 2   
    99   95  112 1   
   100   97   98 1   
   101   97   99 1   
   102   97  103 1   
   103   98  100 1   
   104   98  104 1   
   105   98  105 1   
   106   99  106 1   
   107   99  107 1   
   108   99  108 1   
   109  100  109 1   
   110  100  110 1   
   111  100  111 1   
   112  112  113 1   
   113  112  119 1   
   114  113  114 1   
   115  113  116 1   
   116  113  120 1   
   117  114  115 2   
   118  114  126 1   
   119  116  117 1   
   120  116  118 1   
   121  116  121 1   
   122  117  123 1   
   123  117  124 1   
   124  117  125 1   
   125  118  122 1   
   126  126  127 1   
   127  126  133 1   
   128  127  128 1   
   129  127  130 1   
   130  127  134 1   
   131  128  129 2   
   132  128  140 1   
   133  130  131 1   
   134  130  132 1   
   135  130  135 1   
   136  131  137 1   
   137  131  138 1   
   138  131  139 1   
   139  132  136 1   
   140  140  141 1   
   141  140  149 1   
   142  141  142 1   
   143  141  144 1   
   144  141  150 1   
   145  142  143 2   
   146  142  162 1   
   147  144  145 1   
   148  144  151 1   
   149  144  152 1   
   150  145  146 1   
   151  145  153 1   
   152  145  154 1   
   153  146  147 1   
   154  146  155 1   
   155  146  156 1   
   156  147  148 1   
   157  147  157 1   
   158  147  158 1   
   159  148  159 1   
   160  148  160 1   
   161  148  161 1   
   162  162  163 1   
   163  162  171 1   
   164  163  164 1   
   165  163  166 1   
   166  163  172 1   
   167  164  165 2   
   168  164  177 1   
   169  166  167 1   
   170  166  173 1   
   171  166  174 1   
   172  167  168 1   
   173  167  175 1   
   174  167  176 1   
   175  168  169 1   
   176  168  170 1   
   177  177  178 1   
   178  177  182 1   
   179  178  179 1   
   180  178  180 1   
   181  178  181 1   
   182  184  185 1   
   183  184  186 1   
   184  187  188 1   
   185  187  189 1   
   186  190  191 1   
   187  190  192 1   
@<TRIPOS>SUBSTRUCTURE
     1 MOL         1 TEMP              0 ****  ****    0 ROOT
