@<TRIPOS>MOLECULE
MOL
  186   183     1     0     0
SMALL
resp


@<TRIPOS>ATOM
      1 C1        -12.1130    2.0860    4.5090 c3        1 MOL     -0.315714
      2 C2        -11.7990    1.8980    3.0520 c         1 MOL      0.698288
      3 O1        -12.0330    0.8050    2.4970 o         1 MOL     -0.598860
      4 H1        -12.3450    1.1200    4.9580 hc        1 MOL      0.079219
      5 H2        -11.2520    2.5230    5.0140 hc        1 MOL      0.079219
      6 H3        -12.9720    2.7480    4.6140 hc        1 MOL      0.079219
      7 N1        -11.1220    2.9500    2.4670 n         1 MOL     -0.350166
      8 C3        -10.7130    3.0050    1.0640 c3        1 MOL     -0.678735
      9 C4         -9.5100    2.1500    0.7130 c         1 MOL      0.788859
     10 O2         -8.4430    2.3640    1.2160 o         1 MOL     -0.687029
     11 C5        -10.5550    4.4390    0.5630 c3        1 MOL     -0.128558
     12 C6         -9.8070    5.3240    1.5970 c         1 MOL      0.869612
     13 O3         -8.6200    5.5800    1.3720 o         1 MOL     -0.776353
     14 O4        -10.3580    5.7790    2.5900 o         1 MOL     -0.776353
     15 H4        -10.9350    3.8170    2.9520 hn        1 MOL      0.336796
     16 H5        -11.5540    2.6410    0.4810 h1        1 MOL      0.240789
     17 H6        -11.5270    4.8950    0.3920 hc        1 MOL      0.106646
     18 H7        -10.0510    4.5110   -0.3960 hc        1 MOL      0.106646
     19 N2         -9.6860    1.1340   -0.1060 n         1 MOL     -0.294899
     20 C7         -8.7730    0.0780   -0.6640 c3        1 MOL      0.179641
     21 C8         -7.7670    0.6670   -1.7020 c         1 MOL      0.361905
     22 O5         -7.6320    0.2050   -2.8600 o         1 MOL     -0.519673
     23 C9         -9.6030   -1.1780   -1.0500 c3        1 MOL     -0.340476
     24 C10        -8.6980   -2.3810   -1.0780 c3        1 MOL      0.029438
     25 C11        -9.6670   -3.5370   -1.2080 c3        1 MOL     -0.204498
     26 C12        -8.8870   -4.8770   -1.2700 c3        1 MOL      0.252448
     27 N3         -9.6400   -5.9970   -1.9050 n4        1 MOL     -0.519355
     28 H8        -10.6120    1.0180   -0.5050 hn        1 MOL      0.212409
     29 H9         -8.1800   -0.3000    0.1660 h1        1 MOL      0.069858
     30 H10        -9.8200   -0.9630   -2.0920 hc        1 MOL      0.122076
     31 H11       -10.4720   -1.3950   -0.4270 hc        1 MOL      0.122076
     32 H12        -8.3130   -2.4720   -0.0610 hc        1 MOL      0.074442
     33 H13        -7.8980   -2.3350   -1.8080 hc        1 MOL      0.074442
     34 H14       -10.1950   -3.5940   -2.1610 hc        1 MOL      0.074075
     35 H15       -10.4370   -3.5810   -0.4330 hc        1 MOL      0.074075
     36 H16        -8.4150   -5.1340   -0.3130 hx        1 MOL      0.011210
     37 H17        -8.0380   -4.6890   -1.9300 hx        1 MOL      0.011210
     38 H18        -9.8500   -5.7440   -2.8540 hn        1 MOL      0.358778
     39 H19        -9.0700   -6.8290   -2.0070 hn        1 MOL      0.358778
     40 H20       -10.4910   -6.2600   -1.4380 hn        1 MOL      0.358778
     41 N4         -7.1440    1.7560   -1.4650 n         1 MOL      0.097732
     42 C13        -5.8940    2.2390   -2.1760 c3        1 MOL     -0.127466
     43 C14        -4.6770    2.3910   -1.2050 c         1 MOL      0.780191
     44 O6         -4.5440    3.3550   -0.4340 o         1 MOL     -0.731275
     45 C15        -6.0750    3.6050   -2.9370 c3        1 MOL     -0.151744
     46 C16        -6.7360    4.7240   -2.1410 c         1 MOL      0.684462
     47 O7         -7.0980    5.8250   -2.6560 o         1 MOL     -0.680118
     48 O8         -6.9830    4.5140   -0.9550 o         1 MOL     -0.680118
     49 H21        -7.2900    2.2050   -0.5750 hn        1 MOL     -0.181172
     50 H22        -5.6110    1.4320   -2.8510 h1        1 MOL      0.082036
     51 H23        -6.6770    3.4080   -3.8300 hc        1 MOL      0.070950
     52 H24        -5.0790    3.9260   -3.2240 hc        1 MOL      0.070950
     53 N5         -3.6080    1.4930   -1.2560 n         1 MOL     -0.470572
     54 C17        -3.5290    0.2560   -1.8940 c3        1 MOL     -0.153756
     55 C18        -4.0710   -0.9510   -1.1390 c         1 MOL      0.627819
     56 O9         -4.9240   -0.7860   -0.3000 o         1 MOL     -0.552191
     57 H25        -2.9500    1.6150   -0.4990 hn        1 MOL      0.297238
     58 H26        -2.4690    0.0850   -2.0680 h1        1 MOL      0.121653
     59 H27        -3.8820    0.2250   -2.9270 h1        1 MOL      0.121653
     60 N6         -3.6100   -2.1640   -1.4730 n         1 MOL     -0.460939
     61 C19        -4.1810   -3.4030   -0.9400 c3        1 MOL      0.033161
     62 C20        -3.0750   -4.4260   -0.6830 c         1 MOL      0.513263
     63 O10        -2.0640   -4.3810   -1.3810 o         1 MOL     -0.457901
     64 C21        -5.1610   -4.0320   -1.9650 c3        1 MOL      0.096577
     65 C22        -4.9620   -3.8100   -3.4510 c         1 MOL      0.680608
     66 O11        -5.9500   -3.5500   -4.1730 o         1 MOL     -0.686386
     67 O12        -3.8020   -3.8600   -3.8910 o         1 MOL     -0.686386
     68 H28        -2.8650   -2.1380   -2.1510 hn        1 MOL      0.294094
     69 H29        -4.8270   -3.1760   -0.1000 h1        1 MOL     -0.001434
     70 H30        -6.0720   -3.4910   -1.7200 hc        1 MOL     -0.087065
     71 H31        -5.2650   -5.1060   -1.7880 hc        1 MOL     -0.087065
     72 N7         -3.2920   -5.4160    0.1510 n         1 MOL     -0.255412
     73 C23        -2.4720   -6.6350    0.0610 c3        1 MOL     -0.270875
     74 C24        -1.1200   -6.4680    0.6730 c         1 MOL      0.567533
     75 O13        -0.3090   -7.4620    0.6190 o         1 MOL     -0.578101
     76 H32        -4.1050   -5.3560    0.7420 hn        1 MOL      0.227393
     77 H33        -2.3190   -6.9730   -0.9740 h1        1 MOL      0.147984
     78 H34        -3.0570   -7.4130    0.5750 h1        1 MOL      0.147984
     79 N8         -0.7540   -5.2870    1.0990 n         1 MOL     -0.320586
     80 C25         0.5300   -4.8330    1.6810 c3        1 MOL     -0.000631
     81 C26         0.8970   -3.4530    1.1460 c         1 MOL      0.763216
     82 O14         0.0680   -2.6120    0.9010 o         1 MOL     -0.568810
     83 C27         0.3690   -4.8060    3.2150 c3        1 MOL      0.330248
     84 C28         0.0640   -6.1170    3.8550 c3        1 MOL     -0.404043
     85 O15         1.5080   -4.2530    3.8910 oh        1 MOL     -0.592423
     86 H35        -1.4220   -4.5330    0.9560 hn        1 MOL      0.108141
     87 H36         1.3360   -5.5060    1.3960 h1        1 MOL      0.048825
     88 H37        -0.4260   -4.0840    3.3860 h1        1 MOL      0.045460
     89 H38         2.1880   -4.9290    3.9190 ho        1 MOL      0.373494
     90 H39        -0.2990   -5.8320    4.8350 hc        1 MOL      0.104238
     91 H40        -0.6300   -6.6820    3.2410 hc        1 MOL      0.104238
     92 H41         1.0260   -6.6130    3.9910 hc        1 MOL      0.104238
     93 N9          2.2010   -3.3070    0.9520 n         1 MOL     -0.698318
     94 C29         2.7910   -2.0220    0.4530 c3        1 MOL      0.009387
     95 C30         4.0270   -2.1910   -0.4560 c         1 MOL      0.513479
     96 O16         4.4200   -1.2370   -1.0460 o         1 MOL     -0.459945
     97 C31         3.0790   -1.2300    1.7510 c3        1 MOL     -0.011864
     98 C32         3.6360    0.2370    1.5390 c3        1 MOL      0.043174
     99 C33         4.0610   -2.0460    2.5450 c3        1 MOL     -0.433320
    100 C34         2.8040    1.0840    0.5960 c3        1 MOL     -0.182941
    101 H42         2.8350   -4.0480    1.2210 hn        1 MOL      0.342898
    102 H43         2.0330   -1.5150   -0.1460 h1        1 MOL      0.156286
    103 H44         2.1550   -1.1950    2.3250 hc        1 MOL      0.096520
    104 H45         4.6570    0.2260    1.1650 hc        1 MOL      0.024391
    105 H46         3.5790    0.7330    2.5120 hc        1 MOL      0.024391
    106 H47         4.2870   -1.5090    3.4650 hc        1 MOL      0.113780
    107 H48         3.6540   -3.0230    2.7810 hc        1 MOL      0.113780
    108 H49         5.0740   -2.0710    2.1230 hc        1 MOL      0.113780
    109 H50         3.4670    1.9350    0.4500 hc        1 MOL      0.040029
    110 H51         2.5560    0.4850   -0.2800 hc        1 MOL      0.040029
    111 H52         1.9160    1.3610    1.1680 hc        1 MOL      0.040029
    112 N10         4.8370   -3.3110   -0.3960 n         1 MOL     -0.353878
    113 C35         6.2840   -3.2840   -0.7370 c3        1 MOL      0.092666
    114 C36         7.2100   -3.1170    0.4770 c         1 MOL      0.358618
    115 O17         7.1050   -3.8300    1.5120 o         1 MOL     -0.507077
    116 C37         6.4740   -4.5030   -1.6050 c3        1 MOL      0.256539
    117 C38         5.9220   -5.8500   -1.1010 c3        1 MOL     -0.289234
    118 O18         6.0010   -4.2840   -2.9040 oh        1 MOL     -0.604581
    119 H53         4.4870   -4.0840    0.1650 hn        1 MOL      0.224546
    120 H54         6.4360   -2.4250   -1.3960 h1        1 MOL      0.089468
    121 H55         7.5530   -4.5810   -1.7520 h1        1 MOL     -0.037218
    122 H56         6.2490   -5.1070   -3.3360 ho        1 MOL      0.406826
    123 H57         4.9380   -5.6230   -0.6930 hc        1 MOL      0.086041
    124 H58         5.7780   -6.5670   -1.9080 hc        1 MOL      0.086041
    125 H59         6.4760   -6.2930   -0.2790 hc        1 MOL      0.086041
    126 N11         8.1460   -2.1720    0.4330 n         1 MOL     -0.339477
    127 C39         8.9630   -1.8000    1.5910 c3        1 MOL     -0.019303
    128 C40         9.2310   -0.3190    1.8420 c         1 MOL      0.535922
    129 O19         9.5960   -0.0510    2.9540 o         1 MOL     -0.541411
    130 C41        10.3340   -2.5690    1.3860 c3        1 MOL      0.289594
    131 C42        11.3440   -2.4710    2.5220 c3        1 MOL     -0.547418
    132 O20        10.9390   -1.9900    0.2800 oh        1 MOL     -0.499983
    133 H60         8.1820   -1.7210   -0.4670 hn        1 MOL      0.254492
    134 H61         8.4340   -2.0380    2.5190 h1        1 MOL      0.113280
    135 H62        10.0060   -3.5800    1.1170 h1        1 MOL      0.045122
    136 H63        10.4720   -2.3180   -0.4940 ho        1 MOL      0.275977
    137 H64        10.8390   -2.4290    3.4810 hc        1 MOL      0.162550
    138 H65        11.9300   -3.3870    2.4150 hc        1 MOL      0.162550
    139 H66        11.8370   -1.5140    2.3210 hc        1 MOL      0.162550
    140 N12         9.1500    0.6120    0.9320 n         1 MOL     -0.371980
    141 C43         9.6480    1.9500    1.0570 c3        1 MOL      0.218772
    142 C44         8.6890    2.9150    0.2780 c         1 MOL      0.357009
    143 O21         7.8750    2.4500   -0.5340 o         1 MOL     -0.467230
    144 C45        11.0370    2.0120    0.3940 c3        1 MOL     -0.149844
    145 C46        11.2360    1.3070   -0.9960 c3        1 MOL      0.089693
    146 C47        12.6080    1.6720   -1.6010 c3        1 MOL      0.059106
    147 C48        12.6780    1.0900   -3.0120 c3        1 MOL     -0.310081
    148 N13        12.6380   -0.3590   -3.0030 n4        1 MOL      0.064941
    149 H67         8.5840    0.4150    0.1160 hn        1 MOL      0.168656
    150 H68         9.7090    2.2630    2.1020 h1        1 MOL      0.035470
    151 H69        11.7900    1.7580    1.1320 hc        1 MOL      0.039000
    152 H70        11.2150    3.0690    0.1770 hc        1 MOL      0.039000
    153 H71        10.4310    1.6720   -1.6430 hc        1 MOL      0.009875
    154 H72        11.1550    0.2210   -0.9170 hc        1 MOL      0.009875
    155 H73        13.3840    1.1710   -1.0310 hc        1 MOL      0.021318
    156 H74        12.7800    2.7510   -1.6190 hc        1 MOL      0.021318
    157 H75        13.7190    1.2300   -3.2990 hx        1 MOL      0.161254
    158 H76        11.9880    1.6160   -3.6690 hx        1 MOL      0.161254
    159 H77        11.6750   -0.6410   -3.1120 hn        1 MOL      0.156741
    160 H78        13.0950   -0.7640   -3.8050 hn        1 MOL      0.156741
    161 H79        12.9280   -0.8420   -2.1710 hn        1 MOL      0.156741
    162 N14         8.7770    4.2050    0.5340 n         1 MOL     -0.298791
    163 C49         7.9260    5.2370   -0.0920 c3        1 MOL      0.183068
    164 C50         6.3710    5.1320   -0.0840 c         1 MOL      0.274092
    165 O22         5.8220    5.4010   -1.1540 o         1 MOL     -0.450670
    166 C51         8.4110    6.5840    0.4980 c3        1 MOL     -0.094086
    167 C52         7.6340    7.7190   -0.1200 c3        1 MOL     -0.238639
    168 C53         7.6430    7.8670   -1.6320 c         1 MOL      0.741774
    169 O23         8.5240    7.3770   -2.3910 o         1 MOL     -0.629499
    170 O24         6.8910    8.6600   -2.1880 o         1 MOL     -0.629499
    171 H80         9.4560    4.5120    1.2150 hn        1 MOL      0.205784
    172 H81         8.1990    5.1970   -1.1440 h1        1 MOL      0.052256
    173 H82         9.4450    6.6430    0.1580 hc        1 MOL      0.031504
    174 H83         8.2970    6.6100    1.5890 hc        1 MOL      0.031504
    175 H84         8.0340    8.6480    0.2940 hc        1 MOL      0.066427
    176 H85         6.6000    7.6600    0.2200 hc        1 MOL      0.066427
    177 N15         5.6120    4.7500    0.9710 n         1 MOL     -0.229246
    178 C54         6.0240    4.5920    2.3810 c3        1 MOL      0.070030
    179 H86         7.0100    5.0360    2.5230 h1        1 MOL      0.012935
    180 H87         5.3040    5.0920    3.0290 h1        1 MOL      0.012935
    181 H88         6.0650    3.5320    2.6320 h1        1 MOL      0.012935
    182 H89         4.6480    4.6800    0.6670 hn        1 MOL      0.235347
    183 Ca1        -6.4630    4.0970    1.4820 Ca        1 MOL      1.745983
    184 O25        -5.7370    1.2550    1.5080 oh        1 MOL     -0.769304
    185 H90        -5.7220    1.1160    2.4620 ho        1 MOL      0.367561
    186 H91        -5.2580    0.5120    1.1560 ho        1 MOL      0.367561
@<TRIPOS>BOND
     1    1    2 1   
     2    1    4 1   
     3    1    5 1   
     4    1    6 1   
     5    2    3 2   
     6    2    7 1   
     7    7    8 1   
     8    7   15 1   
     9    8    9 1   
    10    8   11 1   
    11    8   16 1   
    12    9   10 2   
    13    9   19 1   
    14   11   12 1   
    15   11   17 1   
    16   11   18 1   
    17   12   13 1   
    18   12   14 1   
    19   19   20 1   
    20   19   28 1   
    21   20   21 1   
    22   20   23 1   
    23   20   29 1   
    24   21   22 2   
    25   21   41 1   
    26   23   24 1   
    27   23   30 1   
    28   23   31 1   
    29   24   25 1   
    30   24   32 1   
    31   24   33 1   
    32   25   26 1   
    33   25   34 1   
    34   25   35 1   
    35   26   27 1   
    36   26   36 1   
    37   26   37 1   
    38   27   38 1   
    39   27   39 1   
    40   27   40 1   
    41   41   42 1   
    42   41   49 1   
    43   42   43 1   
    44   42   45 1   
    45   42   50 1   
    46   43   44 2   
    47   43   53 1   
    48   45   46 1   
    49   45   51 1   
    50   45   52 1   
    51   46   47 1   
    52   46   48 1   
    53   53   54 1   
    54   53   57 1   
    55   54   55 1   
    56   54   58 1   
    57   54   59 1   
    58   55   56 2   
    59   55   60 1   
    60   60   61 1   
    61   60   68 1   
    62   61   62 1   
    63   61   64 1   
    64   61   69 1   
    65   62   63 2   
    66   62   72 1   
    67   64   65 1   
    68   64   70 1   
    69   64   71 1   
    70   65   66 1   
    71   65   67 1   
    72   72   73 1   
    73   72   76 1   
    74   73   74 1   
    75   73   77 1   
    76   73   78 1   
    77   74   75 2   
    78   74   79 1   
    79   79   80 1   
    80   79   86 1   
    81   80   81 1   
    82   80   83 1   
    83   80   87 1   
    84   81   82 2   
    85   81   93 1   
    86   83   84 1   
    87   83   85 1   
    88   83   88 1   
    89   84   90 1   
    90   84   91 1   
    91   84   92 1   
    92   85   89 1   
    93   93   94 1   
    94   93  101 1   
    95   94   95 1   
    96   94   97 1   
    97   94  102 1   
    98   95   96 2   
    99   95  112 1   
   100   97   98 1   
   101   97   99 1   
   102   97  103 1   
   103   98  100 1   
   104   98  104 1   
   105   98  105 1   
   106   99  106 1   
   107   99  107 1   
   108   99  108 1   
   109  100  109 1   
   110  100  110 1   
   111  100  111 1   
   112  112  113 1   
   113  112  119 1   
   114  113  114 1   
   115  113  116 1   
   116  113  120 1   
   117  114  115 2   
   118  114  126 1   
   119  116  117 1   
   120  116  118 1   
   121  116  121 1   
   122  117  123 1   
   123  117  124 1   
   124  117  125 1   
   125  118  122 1   
   126  126  127 1   
   127  126  133 1   
   128  127  128 1   
   129  127  130 1   
   130  127  134 1   
   131  128  129 2   
   132  128  140 1   
   133  130  131 1   
   134  130  132 1   
   135  130  135 1   
   136  131  137 1   
   137  131  138 1   
   138  131  139 1   
   139  132  136 1   
   140  140  141 1   
   141  140  149 1   
   142  141  142 1   
   143  141  144 1   
   144  141  150 1   
   145  142  143 2   
   146  142  162 1   
   147  144  145 1   
   148  144  151 1   
   149  144  152 1   
   150  145  146 1   
   151  145  153 1   
   152  145  154 1   
   153  146  147 1   
   154  146  155 1   
   155  146  156 1   
   156  147  148 1   
   157  147  157 1   
   158  147  158 1   
   159  148  159 1   
   160  148  160 1   
   161  148  161 1   
   162  162  163 1   
   163  162  171 1   
   164  163  164 1   
   165  163  166 1   
   166  163  172 1   
   167  164  165 2   
   168  164  177 1   
   169  166  167 1   
   170  166  173 1   
   171  166  174 1   
   172  167  168 1   
   173  167  175 1   
   174  167  176 1   
   175  168  169 1   
   176  168  170 1   
   177  177  178 1   
   178  177  182 1   
   179  178  179 1   
   180  178  180 1   
   181  178  181 1   
   182  184  185 1   
   183  184  186 1   
@<TRIPOS>SUBSTRUCTURE
     1 MOL         1 TEMP              0 ****  ****    0 ROOT
