@<TRIPOS>MOLECULE
MOL
  181   177     1     0     0
SMALL
resp


@<TRIPOS>ATOM
      1 C1         -5.2690   -0.5340   -3.7640 c3        1 MOL     -0.183521
      2 C2         -6.2320    0.4120   -3.1010 c         1 MOL      0.627845
      3 O1         -5.9860    1.5980   -3.1200 o         1 MOL     -0.584552
      4 H1         -4.5070    0.0360   -4.2940 hc        1 MOL      0.028742
      5 H2         -4.7940   -1.1600   -3.0080 hc        1 MOL      0.028742
      6 H3         -5.8080   -1.1650   -4.4720 hc        1 MOL      0.028742
      7 N1         -7.2540   -0.1110   -2.4850 n         1 MOL     -0.520603
      8 C3         -8.3570    0.5900   -1.7760 c3        1 MOL      0.302780
      9 C4         -7.8700    1.1760   -0.4700 c         1 MOL      0.569399
     10 O2         -8.2230    0.6480    0.5820 o         1 MOL     -0.548322
     11 C5         -9.5930   -0.2960   -1.8150 c3        1 MOL     -0.377473
     12 C6        -10.8940    0.3710   -1.2920 c         1 MOL      0.813718
     13 O3        -11.1120    1.5790   -1.3890 o         1 MOL     -0.744490
     14 O4        -11.7590   -0.3890   -0.8330 o         1 MOL     -0.744490
     15 H4         -7.3110   -1.1240   -2.5440 hn        1 MOL      0.273414
     16 H5         -8.6680    1.4390   -2.3980 h1        1 MOL     -0.004954
     17 H6         -9.3900   -1.2090   -1.2560 hc        1 MOL      0.038319
     18 H7         -9.7190   -0.6170   -2.8490 hc        1 MOL      0.038319
     19 N2         -7.0990    2.2700   -0.4430 n         1 MOL     -0.611968
     20 C7         -6.4340    2.8240    0.6740 c3        1 MOL      0.335003
     21 C8         -5.3790    1.8460    1.1340 c         1 MOL      0.527869
     22 O5         -4.6750    1.2710    0.3080 o         1 MOL     -0.447879
     23 C9         -6.0010    4.2280    0.3570 c3        1 MOL     -0.347646
     24 H8         -6.6410    2.5300   -1.3100 hn        1 MOL      0.283764
     25 H9         -7.1410    2.9040    1.5020 h1        1 MOL      0.029245
     26 H10        -5.2580    4.2300   -0.4520 hc        1 MOL      0.089615
     27 H11        -6.9030    4.7680    0.0880 hc        1 MOL      0.089615
     28 H12        -5.5670    4.7510    1.2000 hc        1 MOL      0.089615
     29 N3         -5.1300    1.7560    2.4970 n         1 MOL     -0.561431
     30 C10        -4.1860    0.7790    2.9610 c3        1 MOL     -0.206355
     31 C11        -3.5350    1.0100    4.3060 c         1 MOL      0.684531
     32 O6         -4.2170    1.4820    5.1980 o         1 MOL     -0.555268
     33 C12        -4.8830   -0.6020    2.8960 c3        1 MOL      0.081143
     34 C13        -3.9370   -1.6900    3.3860 c         1 MOL      0.596845
     35 O7         -3.5510   -1.7240    4.5700 o         1 MOL     -0.702393
     36 O8         -3.5960   -2.5510    2.5540 o         1 MOL     -0.702393
     37 H13        -5.8430    2.0580    3.1440 hn        1 MOL      0.297403
     38 H14        -3.3750    0.7200    2.2360 h1        1 MOL      0.124388
     39 H15        -5.1650   -0.8460    1.8730 hc        1 MOL     -0.008981
     40 H16        -5.7520   -0.6080    3.5460 hc        1 MOL     -0.008981
     41 N4         -2.2350    0.8620    4.5070 n         1 MOL     -0.365367
     42 C14        -1.4430    1.1460    5.6880 c3        1 MOL     -0.018261
     43 C15        -0.4520    2.4040    5.4860 c         1 MOL      0.479183
     44 O9         -0.4850    3.2630    6.3390 o         1 MOL     -0.511048
     45 H17        -1.7600    0.3570    3.7640 hn        1 MOL      0.296472
     46 H18        -0.7380    0.3330    5.8750 h1        1 MOL      0.074484
     47 H19        -2.2060    1.2560    6.4580 h1        1 MOL      0.074484
     48 N5          0.2640    2.5020    4.3040 n         1 MOL     -0.531955
     49 C16         1.0360    3.7560    3.9600 c3        1 MOL      0.383798
     50 C17         1.0880    4.0230    2.5290 c         1 MOL      0.319376
     51 O10         0.9180    3.0670    1.7340 o         1 MOL     -0.462186
     52 C18         2.5230    3.6020    4.4320 c3        1 MOL     -0.227414
     53 C19         3.5250    4.5620    3.8920 c         1 MOL      0.672173
     54 N6          4.5660    4.1660    3.2660 n         1 MOL     -0.788240
     55 O11         3.3180    5.7610    4.1830 o         1 MOL     -0.606593
     56 H20         0.1230    1.7690    3.6200 hn        1 MOL      0.276327
     57 H21         0.6160    4.6420    4.4510 h1        1 MOL      0.009712
     58 H22         2.8980    2.5870    4.3120 hc        1 MOL      0.047796
     59 H23         2.4870    3.7690    5.5110 hc        1 MOL      0.047796
     60 H24         4.7150    3.1730    3.1480 hn        1 MOL      0.380198
     61 H25         5.3160    4.7780    2.9880 hn        1 MOL      0.380198
     62 N7          1.2440    5.2680    2.1190 n         1 MOL     -0.307085
     63 C20         1.1640    5.7150    0.7200 c3        1 MOL     -0.204058
     64 C21         2.5030    5.6210    0.0100 c         1 MOL      0.603699
     65 O12         3.2430    4.7090    0.2600 o         1 MOL     -0.476085
     66 H26         1.4730    5.9760    2.8100 hn        1 MOL      0.264650
     67 H27         0.7730    6.7240    0.6760 h1        1 MOL      0.122564
     68 H28         0.4870    5.0840    0.1320 h1        1 MOL      0.122564
     69 N8          2.8250    6.4380   -0.9710 n         1 MOL     -0.487434
     70 C22         4.0320    6.3900   -1.8500 c3        1 MOL     -0.147476
     71 C23         4.1520    5.0170   -2.6430 c         1 MOL      0.342404
     72 O13         5.2570    4.5510   -2.9850 o         1 MOL     -0.532480
     73 C24         4.0810    7.5490   -2.8760 c3        1 MOL      0.403849
     74 C25         3.1860    7.7380   -4.0620 c3        1 MOL     -0.124712
     75 O14         3.9850    8.7160   -2.1310 oh        1 MOL     -0.614144
     76 H29         2.0490    7.0400   -1.2010 hn        1 MOL      0.250224
     77 H30         4.9730    6.5620   -1.3260 h1        1 MOL      0.148647
     78 H31         5.0190    7.4990   -3.4290 h1        1 MOL      0.033930
     79 H32         3.1540    8.5680   -1.6750 ho        1 MOL      0.359109
     80 H33         3.4480    6.9270   -4.7450 hc        1 MOL      0.021617
     81 H34         2.1110    7.5980   -3.9840 hc        1 MOL      0.021617
     82 H35         3.2690    8.7140   -4.5230 hc        1 MOL      0.021617
     83 N9          3.0220    4.2940   -2.7830 n         1 MOL     -0.022346
     84 C26         2.8950    2.9030   -3.1180 c3        1 MOL     -0.010175
     85 C27         1.9270    2.2140   -2.2280 c         1 MOL      0.433819
     86 O15         0.9890    2.8780   -1.7430 o         1 MOL     -0.460695
     87 C28         2.6960    2.7180   -4.6270 c3        1 MOL      0.234239
     88 C29         1.3220    3.1450   -5.1070 c3        1 MOL     -0.064753
     89 C30         3.7780    3.2450   -5.5770 c3        1 MOL     -0.378311
     90 C31         1.0090    4.5770   -5.4290 c3        1 MOL     -0.009570
     91 H36         2.1340    4.7380   -2.6010 hn        1 MOL      0.160359
     92 H37         3.8570    2.4600   -2.8770 h1        1 MOL      0.059207
     93 H38         2.7450    1.6380   -4.7490 hc        1 MOL     -0.032608
     94 H39         0.5630    2.6690   -4.4840 hc        1 MOL      0.026480
     95 H40         1.2420    2.6680   -6.0890 hc        1 MOL      0.026480
     96 H41         3.4350    2.9720   -6.5680 hc        1 MOL      0.087103
     97 H42         3.9120    4.3200   -5.4670 hc        1 MOL      0.087103
     98 H43         4.6830    2.6750   -5.3650 hc        1 MOL      0.087103
     99 H44         1.7720    5.0850   -6.0260 hc        1 MOL     -0.001532
    100 H45         0.0540    4.7030   -5.9330 hc        1 MOL     -0.001532
    101 H46         0.9360    5.0890   -4.4660 hc        1 MOL     -0.001532
    102 N10         2.0290    0.8430   -2.1250 n         1 MOL     -0.634306
    103 C32         1.3150    0.0500   -1.1170 c3        1 MOL      0.420591
    104 C33         2.2890   -1.0560   -0.5410 c         1 MOL      0.520081
    105 O16         1.8770   -2.1880   -0.2510 o         1 MOL     -0.450145
    106 C34         0.0320   -0.6070   -1.7350 c3        1 MOL     -0.272130
    107 C35        -1.0540   -1.1470   -0.7880 c         1 MOL      0.751152
    108 O17        -1.6460   -0.3400   -0.0530 o         1 MOL     -0.743405
    109 O18        -1.2170   -2.3910   -0.5600 o         1 MOL     -0.743405
    110 H47         2.6420    0.3690   -2.7670 hn        1 MOL      0.320355
    111 H48         1.0080    0.6340   -0.2540 h1        1 MOL      0.048442
    112 H49         0.4260   -1.2670   -2.5110 hc        1 MOL      0.062496
    113 H50        -0.3960    0.1530   -2.3870 hc        1 MOL      0.062496
    114 N11         3.6110   -0.7410   -0.2850 n         1 MOL     -0.753350
    115 C36         4.4850   -1.5310    0.5340 c3        1 MOL      0.582401
    116 C37         4.9600   -2.7930   -0.2780 c         1 MOL      0.111800
    117 O19         5.1580   -2.6990   -1.5010 o         1 MOL     -0.468870
    118 C38         5.6990   -0.5940    0.9050 c3        1 MOL     -0.273280
    119 C39         6.7900   -1.1120    1.7210 ca        1 MOL      0.133427
    120 C40         6.7850   -1.0200    3.1350 ca        1 MOL     -0.212253
    121 C41         7.9330   -1.6530    1.0620 ca        1 MOL     -0.212253
    122 C42         7.8090   -1.6900    3.9160 ca        1 MOL     -0.074887
    123 C43         9.0310   -2.1920    1.8100 ca        1 MOL     -0.074887
    124 C44         8.9170   -2.2430    3.2200 ca        1 MOL     -0.170289
    125 H51         3.9020    0.2050   -0.4700 hn        1 MOL      0.294215
    126 H52         3.9380   -1.7950    1.4340 h1        1 MOL     -0.042970
    127 H53         5.2890    0.2260    1.4860 hc        1 MOL      0.093442
    128 H54         6.1200   -0.1890   -0.0190 hc        1 MOL      0.093442
    129 H55         5.8930   -0.6480    3.6240 ha        1 MOL      0.131958
    130 H56         7.9110   -1.6940   -0.0120 ha        1 MOL      0.131958
    131 H57         7.6930   -1.7580    4.9850 ha        1 MOL      0.116899
    132 H58         9.9000   -2.5450    1.3000 ha        1 MOL      0.116899
    133 H59         9.6050   -2.8030    3.8460 ha        1 MOL      0.112438
    134 N12         5.0950   -3.9300    0.3940 n         1 MOL      0.025655
    135 C45         5.3560   -5.1620   -0.2690 c3        1 MOL     -0.027983
    136 C46         4.3300   -5.7000   -1.2470 c         1 MOL      0.369621
    137 O20         4.6770   -6.4650   -2.1610 o         1 MOL     -0.564043
    138 C47         5.6610   -6.1890    0.8360 c3        1 MOL      0.055770
    139 C48         5.7760   -5.2970    2.0770 c3        1 MOL     -0.230091
    140 C49         4.8530   -4.1290    1.8360 c3        1 MOL      0.218433
    141 H60         6.2190   -4.9520   -0.8950 h1        1 MOL      0.065609
    142 H61         4.7570   -6.7780    0.9930 hc        1 MOL      0.026219
    143 H62         6.4460   -6.9000    0.6050 hc        1 MOL      0.026219
    144 H63         5.3920   -5.8750    2.9090 hc        1 MOL      0.053737
    145 H64         6.8290   -5.0240    2.1190 hc        1 MOL      0.053737
    146 H65         3.8010   -4.4080    1.8710 h1        1 MOL     -0.013601
    147 H66         5.1500   -3.2910    2.4630 h1        1 MOL     -0.013601
    148 N13         3.1470   -5.1980   -1.2210 n         1 MOL     -0.159431
    149 C50         1.9930   -5.8120   -1.9230 c3        1 MOL     -0.191381
    150 C51         1.8740   -5.3100   -3.3840 c         1 MOL      0.455864
    151 O21         1.0050   -5.8510   -4.0900 o         1 MOL     -0.551514
    152 C52         0.7370   -5.4330   -1.0930 c3        1 MOL      0.030575
    153 C53         0.7190   -6.3190    0.2300 c3        1 MOL     -0.281434
    154 C54        -0.5770   -6.0860    1.0200 c         1 MOL      0.780941
    155 O22        -1.0050   -4.9130    1.1700 o         1 MOL     -0.737960
    156 O23        -1.1350   -6.9650    1.7010 o         1 MOL     -0.737960
    157 H67         2.9600   -4.4070   -0.6300 hn        1 MOL      0.205757
    158 H68         2.1130   -6.8940   -1.9520 h1        1 MOL      0.146057
    159 H69        -0.1720   -5.6060   -1.6800 hc        1 MOL      0.004725
    160 H70         0.7660   -4.3560   -0.9490 hc        1 MOL      0.004725
    161 H71         1.5570   -6.0340    0.8520 hc        1 MOL      0.064321
    162 H72         0.7770   -7.3970    0.0390 hc        1 MOL      0.064321
    163 N14         2.6420   -4.2740   -3.7830 n         1 MOL     -0.107969
    164 C55         2.4630   -3.6010   -5.0430 c3        1 MOL     -0.318414
    165 H73         2.8340   -4.2360   -5.8480 h1        1 MOL      0.112641
    166 H74         1.4030   -3.3980   -5.2000 h1        1 MOL      0.112641
    167 H75         3.0160   -2.6630   -5.0370 h1        1 MOL      0.112641
    168 H76         3.3440   -4.0190   -3.0970 hn        1 MOL      0.198405
    169 Ca1        -3.1110   -3.7970    0.2570 Ca        1 MOL      1.676395
    170 O24        -3.4830   -6.3840   -0.2220 oh        1 MOL     -0.802804
    171 H77        -2.9950   -6.9130   -0.8530 ho        1 MOL      0.401673
    172 H78        -4.1380   -6.9830    0.1390 ho        1 MOL      0.401673
    173 O25        -5.6250   -4.1870    0.3100 oh        1 MOL     -0.802804
    174 H79        -6.1490   -3.4080    0.4810 ho        1 MOL      0.401673
    175 H80        -6.0680   -4.6110   -0.4240 ho        1 MOL      0.401673
    176 O26        -4.2050   -1.4130   -0.3250 oh        1 MOL     -0.802804
    177 H81        -3.4950   -0.8060   -0.1270 ho        1 MOL      0.401673
    178 H82        -5.0050   -0.9430   -0.0790 ho        1 MOL      0.401673
    179 O27        -3.5540   -3.7990   -2.4080 oh        1 MOL     -0.802804
    180 H83        -4.3480   -3.8720   -2.9310 ho        1 MOL      0.401673
    181 H84        -2.8800   -4.2460   -2.9290 ho        1 MOL      0.401673
@<TRIPOS>BOND
     1    1    2 1   
     2    1    4 1   
     3    1    5 1   
     4    1    6 1   
     5    2    3 2   
     6    2    7 1   
     7    7    8 1   
     8    7   15 1   
     9    8    9 1   
    10    8   11 1   
    11    8   16 1   
    12    9   10 2   
    13    9   19 1   
    14   11   12 1   
    15   11   17 1   
    16   11   18 1   
    17   12   13 1   
    18   12   14 1   
    19   19   20 1   
    20   19   24 1   
    21   20   21 1   
    22   20   23 1   
    23   20   25 1   
    24   21   22 2   
    25   21   29 1   
    26   23   26 1   
    27   23   27 1   
    28   23   28 1   
    29   29   30 1   
    30   29   37 1   
    31   30   31 1   
    32   30   33 1   
    33   30   38 1   
    34   31   32 2   
    35   31   41 1   
    36   33   34 1   
    37   33   39 1   
    38   33   40 1   
    39   34   35 1   
    40   34   36 1   
    41   41   42 1   
    42   41   45 1   
    43   42   43 1   
    44   42   46 1   
    45   42   47 1   
    46   43   44 2   
    47   43   48 1   
    48   48   49 1   
    49   48   56 1   
    50   49   50 1   
    51   49   52 1   
    52   49   57 1   
    53   50   51 2   
    54   50   62 1   
    55   52   53 1   
    56   52   58 1   
    57   52   59 1   
    58   53   54 1   
    59   53   55 2   
    60   54   60 1   
    61   54   61 1   
    62   62   63 1   
    63   62   66 1   
    64   63   64 1   
    65   63   67 1   
    66   63   68 1   
    67   64   65 2   
    68   64   69 1   
    69   69   70 1   
    70   69   76 1   
    71   70   71 1   
    72   70   73 1   
    73   70   77 1   
    74   71   72 2   
    75   71   83 1   
    76   73   74 1   
    77   73   75 1   
    78   73   78 1   
    79   74   80 1   
    80   74   81 1   
    81   74   82 1   
    82   75   79 1   
    83   83   84 1   
    84   83   91 1   
    85   84   85 1   
    86   84   87 1   
    87   84   92 1   
    88   85   86 2   
    89   85  102 1   
    90   87   88 1   
    91   87   89 1   
    92   87   93 1   
    93   88   90 1   
    94   88   94 1   
    95   88   95 1   
    96   89   96 1   
    97   89   97 1   
    98   89   98 1   
    99   90   99 1   
   100   90  100 1   
   101   90  101 1   
   102  102  103 1   
   103  102  110 1   
   104  103  104 1   
   105  103  106 1   
   106  103  111 1   
   107  104  105 2   
   108  104  114 1   
   109  106  107 1   
   110  106  112 1   
   111  106  113 1   
   112  107  108 1   
   113  107  109 1   
   114  114  115 1   
   115  114  125 1   
   116  115  116 1   
   117  115  118 1   
   118  115  126 1   
   119  116  117 2   
   120  116  134 1   
   121  118  119 1   
   122  118  127 1   
   123  118  128 1   
   124  119  120 ar  
   125  119  121 ar  
   126  120  122 ar  
   127  120  129 1   
   128  121  123 ar  
   129  121  130 1   
   130  122  124 ar  
   131  122  131 1   
   132  123  124 ar  
   133  123  132 1   
   134  124  133 1   
   135  134  135 1   
   136  134  140 1   
   137  135  136 1   
   138  135  138 1   
   139  135  141 1   
   140  136  137 2   
   141  136  148 1   
   142  138  139 1   
   143  138  142 1   
   144  138  143 1   
   145  139  140 1   
   146  139  144 1   
   147  139  145 1   
   148  140  146 1   
   149  140  147 1   
   150  148  149 1   
   151  148  157 1   
   152  149  150 1   
   153  149  152 1   
   154  149  158 1   
   155  150  151 2   
   156  150  163 1   
   157  152  153 1   
   158  152  159 1   
   159  152  160 1   
   160  153  154 1   
   161  153  161 1   
   162  153  162 1   
   163  154  155 1   
   164  154  156 1   
   165  163  164 1   
   166  163  168 1   
   167  164  165 1   
   168  164  166 1   
   169  164  167 1   
   170  170  171 1   
   171  170  172 1   
   172  173  174 1   
   173  173  175 1   
   174  176  177 1   
   175  176  178 1   
   176  179  180 1   
   177  179  181 1   
@<TRIPOS>SUBSTRUCTURE
     1 MOL         1 TEMP              0 ****  ****    0 ROOT
