@<TRIPOS>MOLECULE
MOL
  198   191     1     0     0
SMALL
resp


@<TRIPOS>ATOM
      1 C1          6.0460    2.3730    5.6670 c3        1 MOL     -0.232255
      2 C2          5.3890    1.8310    4.4020 c         1 MOL      0.674743
      3 O1          5.1060    2.5980    3.5090 o         1 MOL     -0.564784
      4 H1          6.4260    3.3760    5.4760 hc        1 MOL      0.057392
      5 H2          5.3110    2.4100    6.4710 hc        1 MOL      0.057392
      6 H3          6.8690    1.7210    5.9570 hc        1 MOL      0.057392
      7 N1          5.1090    0.5260    4.3070 n         1 MOL     -0.519516
      8 C3          4.8570   -0.1590    2.9990 c3        1 MOL      0.313831
      9 C4          3.4420   -0.2040    2.4090 c         1 MOL      0.094936
     10 O2          3.1840   -0.4580    1.2440 o         1 MOL     -0.251530
     11 C5          5.4400   -1.6070    3.1060 c3        1 MOL     -0.113391
     12 C6          6.9320   -1.7270    3.4250 c         1 MOL      0.686115
     13 O3          7.2460   -1.4210    4.6020 o         1 MOL     -0.673024
     14 O4          7.7550   -2.3630    2.7600 o         1 MOL     -0.673024
     15 H4          5.2500   -0.1160    5.0710 hn        1 MOL      0.240853
     16 H5          5.4250    0.3460    2.2110 h1        1 MOL      0.004274
     17 H6          5.3200   -2.1280    2.1520 hc        1 MOL     -0.003670
     18 H7          4.8730   -2.0760    3.9070 hc        1 MOL     -0.003670
     19 N2          2.5350    0.2010    3.3210 n         1 MOL     -0.203731
     20 C7          1.1180    0.2100    3.0310 c3        1 MOL     -0.034891
     21 C8          0.6340    1.5270    2.4690 c         1 MOL      0.370936
     22 O5          0.9390    2.5260    3.1210 o         1 MOL     -0.517246
     23 C9          0.3300   -0.3190    4.3210 c3        1 MOL     -0.125363
     24 C10         0.6830   -1.7310    4.6520 c3        1 MOL      0.014339
     25 C11        -0.1520   -2.1210    5.9030 c3        1 MOL     -0.078115
     26 C12         0.2920   -3.5130    6.4360 c3        1 MOL      0.139847
     27 N3         -0.6600   -4.1190    7.4230 n4        1 MOL     -0.412220
     28 H8          2.8350    0.3680    4.2800 hn        1 MOL      0.215845
     29 H9          1.0200   -0.6490    2.3700 h1        1 MOL      0.178911
     30 H10        -0.7420   -0.2380    4.1650 hc        1 MOL      0.060045
     31 H11         0.6480    0.1880    5.2310 hc        1 MOL      0.060045
     32 H12         1.7470   -1.8540    4.8320 hc        1 MOL      0.033731
     33 H13         0.3430   -2.3720    3.8340 hc        1 MOL      0.033731
     34 H14        -1.2030   -2.0830    5.6270 hc        1 MOL      0.038270
     35 H15        -0.0310   -1.4570    6.7650 hc        1 MOL      0.038270
     36 H16         1.2340   -3.3470    6.9560 hx        1 MOL      0.049856
     37 H17         0.5360   -4.2470    5.6720 hx        1 MOL      0.049856
     38 H18        -1.5210   -4.3130    6.9320 hn        1 MOL      0.314613
     39 H19        -0.2270   -4.9560    7.7760 hn        1 MOL      0.314613
     40 H20        -0.8450   -3.3530    8.0520 hn        1 MOL      0.314613
     41 N4         -0.2540    1.6510    1.5220 n         1 MOL     -0.004194
     42 C13        -0.8440    0.6890    0.6810 c3        1 MOL     -0.383949
     43 C14        -1.3270   -0.5790    1.3780 c         1 MOL      0.334393
     44 O6         -0.7380   -1.6490    1.2130 o         1 MOL     -0.489334
     45 C15         0.0530    0.4580   -0.5590 c3        1 MOL     -0.348680
     46 C16         0.0570    1.7430   -1.4800 c         1 MOL      0.571640
     47 O7         -0.5020    2.8300   -1.1650 o         1 MOL     -0.687721
     48 O8          0.6240    1.6690   -2.6330 o         1 MOL     -0.687721
     49 H21        -0.4740    2.6060    1.2980 hn        1 MOL      0.107981
     50 H22        -1.7390    1.2120    0.3660 h1        1 MOL      0.155556
     51 H23        -0.4340   -0.3590   -1.0890 hc        1 MOL      0.222175
     52 H24         1.0470    0.1330   -0.2470 hc        1 MOL      0.222175
     53 N5         -2.3750   -0.5100    2.2170 n         1 MOL     -0.101567
     54 C17        -3.2690    0.6110    2.4210 c3        1 MOL     -0.124080
     55 C18        -4.4390    0.1630    3.3470 c         1 MOL      0.564789
     56 O9         -4.2200   -0.6750    4.0900 o         1 MOL     -0.555387
     57 H25        -2.6620   -1.3450    2.7140 hn        1 MOL      0.210037
     58 H26        -3.7720    0.8620    1.4820 h1        1 MOL      0.082017
     59 H27        -2.6580    1.4340    2.7750 h1        1 MOL      0.082017
     60 N6         -5.5120    0.8800    3.4040 n         1 MOL     -0.374146
     61 C19        -5.7410    2.0890    2.6160 c3        1 MOL     -0.033064
     62 C20        -6.5750    1.6740    1.3150 c         1 MOL      0.414383
     63 O10        -7.2250    0.6440    1.3070 o         1 MOL     -0.476572
     64 C21        -6.5670    3.1640    3.3780 c3        1 MOL     -0.160103
     65 C22        -8.0440    2.8660    3.6800 c         1 MOL      0.751516
     66 O11        -8.8630    3.5220    2.9770 o         1 MOL     -0.693651
     67 O12        -8.4460    2.2120    4.7070 o         1 MOL     -0.693651
     68 H28        -6.2080    0.5000    4.0250 hn        1 MOL      0.288804
     69 H29        -4.8500    2.5170    2.1620 h1        1 MOL      0.045128
     70 H30        -6.5270    3.9480    2.6160 hc        1 MOL      0.015755
     71 H31        -6.0020    3.4820    4.2470 hc        1 MOL      0.015755
     72 N7         -6.5950    2.4450    0.2290 n         1 MOL     -0.230552
     73 C23        -7.3850    2.2740   -0.9930 c3        1 MOL     -0.367808
     74 C24        -6.8270    1.4850   -2.1390 c         1 MOL      0.552388
     75 O13        -7.5630    1.1720   -3.0630 o         1 MOL     -0.517733
     76 H32        -5.9580    3.2270    0.2640 hn        1 MOL      0.243937
     77 H33        -7.6580    3.2900   -1.3110 h1        1 MOL      0.185015
     78 H34        -8.2930    1.7980   -0.6220 h1        1 MOL      0.185015
     79 N8         -5.5600    0.9780   -1.9340 n         1 MOL     -0.262425
     80 C25        -5.0500   -0.1310   -2.6010 c3        1 MOL      0.015860
     81 C26        -4.4990   -1.1530   -1.6410 c         1 MOL      0.493884
     82 O14        -3.3880   -0.8990   -1.1050 o         1 MOL     -0.474867
     83 C27        -4.0280    0.1650   -3.6770 c3        1 MOL      0.015107
     84 C28        -4.4460    1.2970   -4.5820 c3        1 MOL     -0.276010
     85 O15        -3.8830   -1.0360   -4.5040 oh        1 MOL     -0.559823
     86 H35        -4.9970    1.4540   -1.2330 hn        1 MOL      0.160902
     87 H36        -5.8160   -0.6500   -3.1930 h1        1 MOL      0.132614
     88 H37        -2.9970    0.2700   -3.3310 h1        1 MOL      0.166203
     89 H38        -3.5170   -0.7500   -5.3440 ho        1 MOL      0.410814
     90 H39        -4.4310    2.2410   -4.0340 hc        1 MOL      0.082419
     91 H40        -3.6400    1.3790   -5.3080 hc        1 MOL      0.082419
     92 H41        -5.3600    1.1000   -5.1380 hc        1 MOL      0.082419
     93 N9         -5.0650   -2.3100   -1.4940 n         1 MOL     -0.344245
     94 C29        -4.6450   -3.3650   -0.4770 c3        1 MOL     -0.206051
     95 C30        -3.3120   -4.1480   -0.8610 c         1 MOL      0.397992
     96 O16        -3.1950   -5.3570   -0.6020 o         1 MOL     -0.534145
     97 C31        -5.8120   -4.3030   -0.1640 c3        1 MOL      0.305880
     98 C32        -6.5410   -4.7970   -1.4590 c3        1 MOL      0.008983
     99 C33        -6.8090   -3.5720    0.7580 c3        1 MOL     -0.240469
    100 C34        -7.4500   -5.9460   -1.0730 c3        1 MOL     -0.257848
    101 H42        -5.9230   -2.4970   -1.9970 hn        1 MOL      0.223824
    102 H43        -4.2970   -2.9250    0.4600 h1        1 MOL      0.123307
    103 H44        -5.4880   -5.1340    0.4670 hc        1 MOL      0.008065
    104 H45        -5.8590   -5.2090   -2.1960 hc        1 MOL      0.036575
    105 H46        -7.1230   -3.9630   -1.8670 hc        1 MOL      0.036575
    106 H47        -6.3180   -3.1840    1.6410 hc        1 MOL      0.058318
    107 H48        -7.2360   -2.6920    0.2730 hc        1 MOL      0.058318
    108 H49        -7.5240   -4.2610    1.2100 hc        1 MOL      0.058318
    109 H50        -8.3670   -5.4490   -0.7540 hc        1 MOL      0.061980
    110 H51        -7.7110   -6.4350   -2.0170 hc        1 MOL      0.061980
    111 H52        -7.0460   -6.5860   -0.2940 hc        1 MOL      0.061980
    112 N10        -2.3280   -3.5470   -1.5670 n         1 MOL      0.012509
    113 C35        -1.2970   -4.2400   -2.3820 c3        1 MOL     -0.184714
    114 C36         0.1170   -4.2650   -1.8170 c         1 MOL      0.439932
    115 O17         0.7660   -5.2390   -2.0030 o         1 MOL     -0.560323
    116 C37        -1.4400   -3.7890   -3.8860 c3        1 MOL      0.332531
    117 C38        -0.8680   -2.3900   -4.1250 c3        1 MOL     -0.208171
    118 O18        -2.8110   -3.8120   -4.2760 oh        1 MOL     -0.605661
    119 H53        -2.3690   -2.5430   -1.6920 hn        1 MOL      0.106473
    120 H54        -1.6710   -5.2610   -2.4350 h1        1 MOL      0.135112
    121 H55        -0.8040   -4.5050   -4.4180 h1        1 MOL      0.029092
    122 H56        -3.2080   -2.9690   -4.0640 ho        1 MOL      0.321850
    123 H57        -1.3520   -1.7150   -3.4210 hc        1 MOL      0.049615
    124 H58         0.2160   -2.3060   -4.1970 hc        1 MOL      0.049615
    125 H59        -1.1650   -2.1100   -5.1310 hc        1 MOL      0.049615
    126 N11         0.5020   -3.3010   -0.9830 n         1 MOL      0.044458
    127 C39         1.8580   -2.9460   -0.4530 c3        1 MOL      0.080228
    128 C40         2.7370   -2.5250   -1.5910 c         1 MOL      0.286924
    129 O19         2.3720   -2.6210   -2.7580 o         1 MOL     -0.453356
    130 C41         2.4620   -4.1110    0.3690 c3        1 MOL      0.175510
    131 C42         1.4630   -4.5730    1.4710 c3        1 MOL     -0.336086
    132 O20         3.5430   -3.6460    1.1900 oh        1 MOL     -0.637434
    133 H60        -0.2100   -2.6480   -0.7160 hn        1 MOL     -0.151150
    134 H61         1.7290   -2.0990    0.2210 h1        1 MOL      0.113299
    135 H62         2.8130   -4.8180   -0.3860 h1        1 MOL      0.048941
    136 H63         3.9740   -4.4820    1.4340 ho        1 MOL      0.409668
    137 H64         1.0920   -3.6780    1.9800 hc        1 MOL      0.084186
    138 H65         0.6290   -5.1020    1.0080 hc        1 MOL      0.084186
    139 H66         1.9170   -5.1250    2.2970 hc        1 MOL      0.084186
    140 N12         3.9530   -1.9730   -1.2310 n         1 MOL     -0.133892
    141 C43         4.9290   -1.4040   -2.2090 c3        1 MOL     -0.034252
    142 C44         5.1850    0.0880   -2.3030 c         1 MOL      0.629991
    143 O21         5.8880    0.6680   -3.1480 o         1 MOL     -0.626597
    144 C45         6.1930   -2.2780   -2.1270 c3        1 MOL     -0.134278
    145 C46         5.9970   -3.7340   -2.6170 c3        1 MOL      0.152860
    146 C47         5.7670   -3.8370   -4.1060 c3        1 MOL      0.036658
    147 C48         5.4920   -5.2440   -4.7120 c3        1 MOL      0.010515
    148 N13         6.3830   -6.2300   -4.1090 n4        1 MOL     -0.264424
    149 H67         4.1170   -1.8600   -0.2370 hn        1 MOL      0.197923
    150 H68         4.4500   -1.7070   -3.1480 h1        1 MOL      0.030266
    151 H69         6.5200   -2.1710   -1.0970 hc        1 MOL      0.053551
    152 H70         6.9980   -1.9350   -2.7760 hc        1 MOL      0.053551
    153 H71         5.2050   -4.1710   -2.0100 hc        1 MOL     -0.045701
    154 H72         6.9380   -4.2310   -2.3770 hc        1 MOL     -0.045701
    155 H73         6.6650   -3.4730   -4.6200 hc        1 MOL      0.020140
    156 H74         4.8670   -3.3280   -4.4630 hc        1 MOL      0.020140
    157 H75         5.7480   -5.1890   -5.7640 hx        1 MOL      0.085535
    158 H76         4.4530   -5.5720   -4.5720 hx        1 MOL      0.085535
    159 H77         6.1700   -6.3940   -3.1350 hn        1 MOL      0.287478
    160 H78         6.3220   -7.0860   -4.6330 hn        1 MOL      0.287478
    161 H79         7.3520   -5.9670   -4.2210 hn        1 MOL      0.287478
    162 N14         4.5490    0.7570   -1.3460 n         1 MOL     -0.321494
    163 C49         4.6970    2.2120   -1.1530 c3        1 MOL     -0.079983
    164 C50         6.2370    2.6070   -0.9980 c         1 MOL      0.484589
    165 O22         6.9330    2.0720   -0.1030 o         1 MOL     -0.519487
    166 C51         3.7500    2.6820   -0.0130 c3        1 MOL      0.438444
    167 C52         3.6980    4.1710    0.3690 c3        1 MOL     -0.455564
    168 C53         3.3670    5.0860   -0.7920 c         1 MOL      0.671896
    169 O23         4.3460    5.3760   -1.5310 o         1 MOL     -0.724763
    170 O24         2.1560    5.2990   -1.0890 o         1 MOL     -0.724763
    171 H80         3.9100    0.2880   -0.7220 hn        1 MOL      0.116954
    172 H81         4.3810    2.6980   -2.0760 h1        1 MOL      0.080416
    173 H82         3.9130    2.0240    0.8390 hc        1 MOL     -0.064206
    174 H83         2.7810    2.3530   -0.3750 hc        1 MOL     -0.064206
    175 H84         4.6780    4.3430    0.8180 hc        1 MOL      0.110412
    176 H85         2.9560    4.3180    1.1530 hc        1 MOL      0.110412
    177 N15         6.7260    3.5430   -1.8210 n         1 MOL     -0.211536
    178 C54         8.1080    4.1350   -1.7740 c3        1 MOL     -0.247191
    179 H86         8.0450    5.2140   -1.9200 h1        1 MOL      0.104019
    180 H87         8.5600    3.9270   -0.8040 h1        1 MOL      0.104019
    181 H88         8.7190    3.6970   -2.5630 h1        1 MOL      0.104019
    182 H89         6.1460    4.0250   -2.4850 hn        1 MOL      0.283779
    183 Ca1        -0.3040    5.3380   -1.7040 Ca        1 MOL      1.715185
    184 O25         1.0100    4.0800   -3.7520 oh        1 MOL     -0.820206
    185 H90         1.2010    3.7480   -4.6280 ho        1 MOL      0.411736
    186 H91         1.1340    3.3280   -3.1830 ho        1 MOL      0.411736
    187 O26        -2.1630    4.5490   -3.3980 oh        1 MOL     -0.820206
    188 H92        -3.0510    4.7170   -3.7090 ho        1 MOL      0.411736
    189 H93        -1.8920    3.7530   -3.8480 ho        1 MOL      0.411736
    190 O27        -2.0390    7.4100   -2.4890 oh        1 MOL     -0.820206
    191 O28         0.7340    7.1060   -3.3040 oh        1 MOL     -0.820206
    192 H94        -2.9020    7.5620   -2.1000 ho        1 MOL      0.411736
    193 H95         0.5290    7.6740   -4.0430 ho        1 MOL      0.411736
    194 H96        -1.6190    8.2650   -2.4640 ho        1 MOL      0.411736
    195 H97         1.5940    7.4010   -3.0060 ho        1 MOL      0.411736
    196 O29         0.5180    7.5680   -0.3320 oh        1 MOL     -0.820206
    197 H98         0.4270    8.4150    0.1160 ho        1 MOL      0.411736
    198 H99         1.4600    7.4430   -0.4270 ho        1 MOL      0.411736
@<TRIPOS>BOND
     1    1    2 1   
     2    1    4 1   
     3    1    5 1   
     4    1    6 1   
     5    2    3 2   
     6    2    7 1   
     7    7    8 1   
     8    7   15 1   
     9    8    9 1   
    10    8   11 1   
    11    8   16 1   
    12    9   10 2   
    13    9   19 1   
    14   11   12 1   
    15   11   17 1   
    16   11   18 1   
    17   12   13 1   
    18   12   14 1   
    19   19   20 1   
    20   19   28 1   
    21   20   21 1   
    22   20   23 1   
    23   20   29 1   
    24   21   22 2   
    25   21   41 1   
    26   23   24 1   
    27   23   30 1   
    28   23   31 1   
    29   24   25 1   
    30   24   32 1   
    31   24   33 1   
    32   25   26 1   
    33   25   34 1   
    34   25   35 1   
    35   26   27 1   
    36   26   36 1   
    37   26   37 1   
    38   27   38 1   
    39   27   39 1   
    40   27   40 1   
    41   41   42 1   
    42   41   49 1   
    43   42   43 1   
    44   42   45 1   
    45   42   50 1   
    46   43   44 2   
    47   43   53 1   
    48   45   46 1   
    49   45   51 1   
    50   45   52 1   
    51   46   47 1   
    52   46   48 1   
    53   53   54 1   
    54   53   57 1   
    55   54   55 1   
    56   54   58 1   
    57   54   59 1   
    58   55   56 2   
    59   55   60 1   
    60   60   61 1   
    61   60   68 1   
    62   61   62 1   
    63   61   64 1   
    64   61   69 1   
    65   62   63 2   
    66   62   72 1   
    67   64   65 1   
    68   64   70 1   
    69   64   71 1   
    70   65   66 1   
    71   65   67 1   
    72   72   73 1   
    73   72   76 1   
    74   73   74 1   
    75   73   77 1   
    76   73   78 1   
    77   74   75 2   
    78   74   79 1   
    79   79   80 1   
    80   79   86 1   
    81   80   81 1   
    82   80   83 1   
    83   80   87 1   
    84   81   82 2   
    85   81   93 1   
    86   83   84 1   
    87   83   85 1   
    88   83   88 1   
    89   84   90 1   
    90   84   91 1   
    91   84   92 1   
    92   85   89 1   
    93   93   94 1   
    94   93  101 1   
    95   94   95 1   
    96   94   97 1   
    97   94  102 1   
    98   95   96 2   
    99   95  112 1   
   100   97   98 1   
   101   97   99 1   
   102   97  103 1   
   103   98  100 1   
   104   98  104 1   
   105   98  105 1   
   106   99  106 1   
   107   99  107 1   
   108   99  108 1   
   109  100  109 1   
   110  100  110 1   
   111  100  111 1   
   112  112  113 1   
   113  112  119 1   
   114  113  114 1   
   115  113  116 1   
   116  113  120 1   
   117  114  115 2   
   118  114  126 1   
   119  116  117 1   
   120  116  118 1   
   121  116  121 1   
   122  117  123 1   
   123  117  124 1   
   124  117  125 1   
   125  118  122 1   
   126  126  127 1   
   127  126  133 1   
   128  127  128 1   
   129  127  130 1   
   130  127  134 1   
   131  128  129 2   
   132  128  140 1   
   133  130  131 1   
   134  130  132 1   
   135  130  135 1   
   136  131  137 1   
   137  131  138 1   
   138  131  139 1   
   139  132  136 1   
   140  140  141 1   
   141  140  149 1   
   142  141  142 1   
   143  141  144 1   
   144  141  150 1   
   145  142  143 2   
   146  142  162 1   
   147  144  145 1   
   148  144  151 1   
   149  144  152 1   
   150  145  146 1   
   151  145  153 1   
   152  145  154 1   
   153  146  147 1   
   154  146  155 1   
   155  146  156 1   
   156  147  148 1   
   157  147  157 1   
   158  147  158 1   
   159  148  159 1   
   160  148  160 1   
   161  148  161 1   
   162  162  163 1   
   163  162  171 1   
   164  163  164 1   
   165  163  166 1   
   166  163  172 1   
   167  164  165 2   
   168  164  177 1   
   169  166  167 1   
   170  166  173 1   
   171  166  174 1   
   172  167  168 1   
   173  167  175 1   
   174  167  176 1   
   175  168  169 1   
   176  168  170 1   
   177  177  178 1   
   178  177  182 1   
   179  178  179 1   
   180  178  180 1   
   181  178  181 1   
   182  184  185 1   
   183  184  186 1   
   184  187  188 1   
   185  187  189 1   
   186  190  192 1   
   187  190  194 1   
   188  191  193 1   
   189  191  195 1   
   190  196  197 1   
   191  196  198 1   
@<TRIPOS>SUBSTRUCTURE
     1 MOL         1 TEMP              0 ****  ****    0 ROOT
