@<TRIPOS>MOLECULE
MOL
  189   185     1     0     0
SMALL
resp


@<TRIPOS>ATOM
      1 C1          9.4380    0.2560    2.4390 c3        1 MOL     -0.487721
      2 C2          8.3890    0.2560    1.3120 c         1 MOL      0.810952
      3 O1          7.2110    0.1880    1.6380 o         1 MOL     -0.723457
      4 H1          8.9660   -0.0500    3.3730 hc        1 MOL      0.117009
      5 H2         10.2380   -0.4420    2.1920 hc        1 MOL      0.117009
      6 H3          9.8500    1.2580    2.5530 hc        1 MOL      0.117009
      7 N1          8.8030    0.1510    0.0870 n         1 MOL     -0.525925
      8 C3          7.8660    0.1650   -1.0290 c3        1 MOL     -0.026960
      9 C4          7.3680   -1.2220   -1.3920 c         1 MOL      0.456785
     10 O2          7.4580   -1.6840   -2.5580 o         1 MOL     -0.455461
     11 C5          8.5550    0.8330   -2.1870 c3        1 MOL     -0.248643
     12 C6          9.9400    0.2630   -2.5990 c         1 MOL      0.728567
     13 O3         10.4400    0.7520   -3.6570 o         1 MOL     -0.649807
     14 O4         10.4950   -0.6470   -1.9580 o         1 MOL     -0.649807
     15 H4          9.8120    0.1850   -0.0460 hn        1 MOL      0.280599
     16 H5          6.9790    0.7390   -0.7980 h1        1 MOL      0.129180
     17 H6          8.7960    1.8600   -1.8970 hc        1 MOL      0.084043
     18 H7          7.9160    0.8710   -3.0770 hc        1 MOL      0.084043
     19 N2          6.8570   -1.9270   -0.4210 n         1 MOL     -0.314595
     20 C7          6.3190   -3.2880   -0.5160 c3        1 MOL      0.089900
     21 C8          4.8880   -3.2180   -1.0610 c         1 MOL      0.403790
     22 O5          4.6410   -3.8940   -2.0490 o         1 MOL     -0.515667
     23 C9          6.3280   -4.0740    0.8490 c3        1 MOL      0.072931
     24 C10         7.8560   -4.2830    1.1700 c3        1 MOL     -0.202520
     25 C11         8.1830   -4.9960    2.4670 c3        1 MOL      0.096161
     26 C12         9.5700   -4.9160    3.0130 c3        1 MOL      0.029246
     27 N3          9.5200   -5.2620    4.4930 n4        1 MOL     -0.369560
     28 H8          6.7450   -1.4290    0.4490 hn        1 MOL      0.245453
     29 H9          6.8790   -3.8680   -1.2550 h1        1 MOL      0.075436
     30 H10         5.7950   -5.0090    0.6670 hc        1 MOL      0.013438
     31 H11         5.8380   -3.5720    1.6770 hc        1 MOL      0.013438
     32 H12         8.3800   -3.3320    1.2900 hc        1 MOL      0.066212
     33 H13         8.2780   -4.9220    0.3980 hc        1 MOL      0.066212
     34 H14         7.9190   -6.0410    2.3770 hc        1 MOL      0.000417
     35 H15         7.4420   -4.6880    3.2030 hc        1 MOL      0.000417
     36 H16         9.9900   -3.9240    2.8910 hx        1 MOL      0.087302
     37 H17        10.1740   -5.6690    2.5100 hx        1 MOL      0.087302
     38 H18        10.3210   -4.9080    5.0010 hn        1 MOL      0.297448
     39 H19         8.6820   -4.8070    4.8320 hn        1 MOL      0.297448
     40 H20         9.5120   -6.2580    4.6420 hn        1 MOL      0.297448
     41 N4          3.9460   -2.3870   -0.5840 n         1 MOL     -0.328779
     42 C13         3.8950   -1.4850    0.5390 c3        1 MOL     -0.065004
     43 C14         3.6070   -0.1000   -0.0020 c         1 MOL      0.293465
     44 O6          3.1670    0.1250   -1.1680 o         1 MOL     -0.414123
     45 C15         2.8000   -1.9590    1.4850 c3        1 MOL     -0.214613
     46 C16         1.4670   -2.3400    0.8210 c         1 MOL      0.684840
     47 O7          0.9200   -1.7140   -0.1480 o         1 MOL     -0.662697
     48 O8          0.8130   -3.2770    1.3810 o         1 MOL     -0.662697
     49 H21         3.1180   -2.4200   -1.1620 hn        1 MOL      0.340230
     50 H22         4.7810   -1.2850    1.1310 h1        1 MOL      0.113520
     51 H23         2.7330   -1.2640    2.3170 hc        1 MOL      0.063268
     52 H24         3.2460   -2.8730    1.8690 hc        1 MOL      0.063268
     53 N5          3.6940    0.9020    0.8240 n         1 MOL     -0.182192
     54 C17         3.6550    2.3270    0.3920 c3        1 MOL     -0.120623
     55 C18         2.3510    2.7960   -0.3480 c         1 MOL      0.614341
     56 O9          1.3630    2.1560   -0.1640 o         1 MOL     -0.609304
     57 H25         3.9620    0.7750    1.7930 hn        1 MOL      0.267762
     58 H26         4.5360    2.6070   -0.1740 h1        1 MOL      0.073266
     59 H27         3.6840    2.8590    1.3490 h1        1 MOL      0.073266
     60 N6          2.4690    3.8850   -1.1550 n         1 MOL     -0.495520
     61 C19         1.3880    4.5350   -1.8990 c3        1 MOL      0.254516
     62 C20         1.5120    6.1010   -1.8010 c         1 MOL      0.339315
     63 O10         2.6080    6.6210   -1.9590 o         1 MOL     -0.505083
     64 C21         1.4870    4.2240   -3.4490 c3        1 MOL     -0.254536
     65 C22         1.4150    2.7130   -3.6630 c         1 MOL      0.668887
     66 O11         0.3950    2.0550   -3.3600 o         1 MOL     -0.676234
     67 O12         2.4520    2.0540   -3.9900 o         1 MOL     -0.676234
     68 H28         3.3820    4.3010   -1.2220 hn        1 MOL      0.313830
     69 H29         0.4310    4.1200   -1.5910 h1        1 MOL      0.004555
     70 H30         2.4190    4.5730   -3.8780 hc        1 MOL      0.080197
     71 H31         0.7080    4.7270   -4.0210 hc        1 MOL      0.080197
     72 N7          0.4360    6.8600   -1.5910 n         1 MOL     -0.277627
     73 C23        -0.9300    6.4610   -1.4750 c3        1 MOL     -0.137454
     74 C24        -1.3200    5.8350   -0.1750 c         1 MOL      0.727458
     75 O13        -0.5310    5.7820    0.8050 o         1 MOL     -0.575386
     76 H32         0.6580    7.8420   -1.5880 hn        1 MOL      0.286346
     77 H33        -1.2630    5.7780   -2.2550 h1        1 MOL      0.066950
     78 H34        -1.4840    7.4020   -1.5900 h1        1 MOL      0.066950
     79 N8         -2.5380    5.2840   -0.0360 n         1 MOL     -0.463237
     80 C25        -3.3250    5.2810    1.2290 c3        1 MOL     -0.361637
     81 C26        -3.0510    4.1850    2.2300 c         1 MOL      0.551804
     82 O14        -3.7410    4.0120    3.2230 o         1 MOL     -0.549660
     83 C27        -4.8430    5.4470    1.0140 c3        1 MOL      0.511958
     84 C28        -5.5120    4.2040    0.3360 c3        1 MOL     -0.300042
     85 O15        -5.0590    6.5550    0.1760 oh        1 MOL     -0.652417
     86 H35        -3.1040    5.2580   -0.8800 hn        1 MOL      0.313452
     87 H36        -2.9920    6.1530    1.7960 h1        1 MOL      0.166891
     88 H37        -5.3660    5.5680    1.9690 h1        1 MOL     -0.011132
     89 H38        -5.6920    7.1730    0.5560 ho        1 MOL      0.395462
     90 H39        -5.6230    3.4880    1.1430 hc        1 MOL      0.086199
     91 H40        -6.5000    4.4740   -0.0460 hc        1 MOL      0.086199
     92 H41        -4.8970    3.7790   -0.4580 hc        1 MOL      0.086199
     93 N9         -2.0410    3.3970    1.8700 n         1 MOL     -0.365816
     94 C29        -1.3280    2.3910    2.6790 c3        1 MOL      0.003209
     95 C30        -1.3470    0.9960    2.1400 c         1 MOL      0.471370
     96 O16        -0.9300    0.7560    0.9900 o         1 MOL     -0.526922
     97 C31         0.1360    2.7910    2.9550 c3        1 MOL      0.331318
     98 C32         0.2300    4.1510    3.6390 c3        1 MOL     -0.058013
     99 C33         1.0410    1.7910    3.6010 c3        1 MOL     -0.553167
    100 C34         1.6720    4.6900    3.8630 c3        1 MOL     -0.137855
    101 H42        -1.5460    3.7280    1.0540 hn        1 MOL      0.271559
    102 H43        -1.8260    2.3650    3.6470 h1        1 MOL      0.016375
    103 H44         0.5280    2.9450    1.9500 hc        1 MOL      0.016543
    104 H45        -0.2390    3.9860    4.6170 hc        1 MOL      0.026852
    105 H46        -0.2970    4.9590    3.1370 hc        1 MOL      0.026852
    106 H47         2.0540    2.1550    3.7790 hc        1 MOL      0.123123
    107 H48         0.5910    1.6620    4.5820 hc        1 MOL      0.123123
    108 H49         1.1420    0.9100    2.9670 hc        1 MOL      0.123123
    109 H50         2.3080    4.7630    2.9810 hc        1 MOL      0.034611
    110 H51         1.4940    5.6750    4.2940 hc        1 MOL      0.034611
    111 H52         2.3190    4.1910    4.5780 hc        1 MOL      0.034611
    112 N10        -1.8800    0.0670    2.9550 n         1 MOL     -0.343616
    113 C35        -2.2350   -1.2720    2.5130 c3        1 MOL     -0.438588
    114 C36        -3.6900   -1.5490    2.1210 c         1 MOL      0.810822
    115 O17        -3.9830   -2.6790    1.7490 o         1 MOL     -0.623771
    116 C37        -1.7100   -2.3850    3.5060 c3        1 MOL      0.445323
    117 C38        -2.0850   -2.1390    4.9240 c3        1 MOL     -0.287533
    118 O18        -0.3140   -2.3400    3.5350 oh        1 MOL     -0.587964
    119 H53        -2.1770    0.4050    3.8610 hn        1 MOL      0.284959
    120 H54        -1.6000   -1.4350    1.6460 h1        1 MOL      0.375328
    121 H55        -2.0220   -3.3590    3.1200 h1        1 MOL     -0.010549
    122 H56        -0.0950   -2.7290    2.6870 ho        1 MOL      0.326222
    123 H57        -1.8530   -2.9550    5.5950 hc        1 MOL      0.056630
    124 H58        -1.6110   -1.2150    5.2490 hc        1 MOL      0.056630
    125 H59        -3.1270   -1.8060    4.9100 hc        1 MOL      0.056630
    126 N11        -4.6690   -0.6830    2.3760 n         1 MOL     -0.344029
    127 C39        -6.0460   -1.0110    2.2320 c3        1 MOL     -0.372221
    128 C40        -6.3550   -1.3710    0.7510 c         1 MOL      0.351767
    129 O19        -6.1750   -0.6000   -0.2350 o         1 MOL     -0.454104
    130 C41        -6.9280    0.2690    2.5900 c3        1 MOL      0.601510
    131 C42        -8.4470    0.0590    2.6800 c3        1 MOL     -0.525616
    132 O20        -6.6590    0.7450    3.8510 oh        1 MOL     -0.651336
    133 H60        -4.3080    0.1930    2.7440 hn        1 MOL      0.262616
    134 H61        -6.3090   -1.7630    2.9750 h1        1 MOL      0.139139
    135 H62        -6.6920    1.0520    1.8790 h1        1 MOL      0.010595
    136 H63        -6.9480    0.1460    4.5410 ho        1 MOL      0.399694
    137 H64        -8.7170   -0.6710    3.4520 hc        1 MOL      0.128555
    138 H65        -9.0200    0.9730    2.8560 hc        1 MOL      0.128555
    139 H66        -8.7430   -0.2620    1.6820 hc        1 MOL      0.128555
    140 N12        -6.8870   -2.5640    0.5970 n         1 MOL     -0.213565
    141 C43        -7.1700   -3.1970   -0.7470 c3        1 MOL     -0.026096
    142 C44        -6.0090   -2.8030   -1.7560 c         1 MOL      0.550744
    143 O21        -6.2760   -2.2790   -2.7980 o         1 MOL     -0.488080
    144 C45        -8.5550   -2.8980   -1.1600 c3        1 MOL     -0.167588
    145 C46        -9.6300   -3.6090   -0.3240 c3        1 MOL      0.026825
    146 C47       -11.0430   -3.5530   -0.9520 c3        1 MOL     -0.065585
    147 C48       -11.0920   -4.3940   -2.2690 c3        1 MOL      0.115982
    148 N13       -12.4880   -4.2560   -2.7150 n4        1 MOL     -0.213604
    149 H67        -7.0580   -3.0800    1.4430 hn        1 MOL      0.221566
    150 H68        -7.0890   -4.2880   -0.6730 h1        1 MOL      0.056808
    151 H69        -8.7780   -3.1390   -2.1990 hc        1 MOL      0.088871
    152 H70        -8.7220   -1.8250   -1.0860 hc        1 MOL      0.088871
    153 H71        -9.6330   -3.1660    0.6780 hc        1 MOL      0.009708
    154 H72        -9.4300   -4.6800   -0.3020 hc        1 MOL      0.009708
    155 H73       -11.2850   -2.5590   -1.3150 hc        1 MOL      0.027699
    156 H74       -11.7940   -3.9330   -0.2530 hc        1 MOL      0.027699
    157 H75       -10.8820   -5.4370   -2.0680 hx        1 MOL      0.064085
    158 H76       -10.4190   -4.0360   -3.0550 hx        1 MOL      0.064085
    159 H77       -13.1200   -4.3480   -1.9230 hn        1 MOL      0.218558
    160 H78       -12.7270   -3.3420   -3.0700 hn        1 MOL      0.218558
    161 H79       -12.7650   -4.8610   -3.4710 hn        1 MOL      0.218558
    162 N14        -4.7480   -3.0430   -1.3090 n         1 MOL     -0.651687
    163 C49        -3.5630   -2.3810   -1.9230 c3        1 MOL      0.446123
    164 C50        -2.3960   -2.3450   -0.9410 c         1 MOL      0.197252
    165 O22        -1.9370   -1.2280   -0.6640 o         1 MOL     -0.641577
    166 C51        -3.2660   -3.1900   -3.1460 c3        1 MOL     -0.335490
    167 C52        -1.9960   -2.6810   -3.7880 c3        1 MOL      0.040515
    168 C53        -1.8810   -1.2230   -4.2270 c         1 MOL      0.587291
    169 O23        -1.0330   -0.5120   -3.5720 o         1 MOL     -0.635327
    170 O24        -2.6220   -0.6710   -5.0340 o         1 MOL     -0.635327
    171 H80        -4.5140   -3.4900   -0.4320 hn        1 MOL      0.350155
    172 H81        -3.7690   -1.3500   -2.2350 h1        1 MOL      0.106330
    173 H82        -4.0780   -3.0620   -3.8560 hc        1 MOL      0.081431
    174 H83        -3.1000   -4.2480   -2.9670 hc        1 MOL      0.081431
    175 H84        -1.7240   -3.3610   -4.5830 hc        1 MOL      0.012337
    176 H85        -1.1890   -2.8620   -3.0710 hc        1 MOL      0.012337
    177 N15        -1.7860   -3.4340   -0.3710 n         1 MOL     -0.127047
    178 C54        -2.0840   -4.8490   -0.6300 c3        1 MOL     -0.257933
    179 H86        -1.8950   -5.0730   -1.6800 h1        1 MOL      0.098482
    180 H87        -1.4480   -5.4750   -0.0060 h1        1 MOL      0.098482
    181 H88        -3.1300   -5.0480   -0.4000 h1        1 MOL      0.098482
    182 H89        -0.9790   -3.2080    0.2010 hn        1 MOL      0.264248
    183 Ca1        -0.0070    0.3410   -1.4430 Ca        1 MOL      1.678929
    184 O25         1.7190   -1.3420   -3.0520 oh        1 MOL     -0.859734
    185 H90         2.5740   -1.0420   -2.7410 ho        1 MOL      0.405771
    186 H91         1.5090   -0.7520   -3.7750 ho        1 MOL      0.405771
    187 O26        -1.9280    2.1470   -1.7710 oh        1 MOL     -0.859734
    188 H92        -2.7590    1.6700   -1.8020 ho        1 MOL      0.405771
    189 H93        -2.0610    2.9120   -2.3200 ho        1 MOL      0.405771
@<TRIPOS>BOND
     1    1    2 1   
     2    1    4 1   
     3    1    5 1   
     4    1    6 1   
     5    2    3 2   
     6    2    7 1   
     7    7    8 1   
     8    7   15 1   
     9    8    9 1   
    10    8   11 1   
    11    8   16 1   
    12    9   10 2   
    13    9   19 1   
    14   11   12 1   
    15   11   17 1   
    16   11   18 1   
    17   12   13 1   
    18   12   14 1   
    19   19   20 1   
    20   19   28 1   
    21   20   21 1   
    22   20   23 1   
    23   20   29 1   
    24   21   22 2   
    25   21   41 1   
    26   23   24 1   
    27   23   30 1   
    28   23   31 1   
    29   24   25 1   
    30   24   32 1   
    31   24   33 1   
    32   25   26 1   
    33   25   34 1   
    34   25   35 1   
    35   26   27 1   
    36   26   36 1   
    37   26   37 1   
    38   27   38 1   
    39   27   39 1   
    40   27   40 1   
    41   41   42 1   
    42   41   49 1   
    43   42   43 1   
    44   42   45 1   
    45   42   50 1   
    46   43   44 2   
    47   43   53 1   
    48   45   46 1   
    49   45   51 1   
    50   45   52 1   
    51   46   47 1   
    52   46   48 1   
    53   53   54 1   
    54   53   57 1   
    55   54   55 1   
    56   54   58 1   
    57   54   59 1   
    58   55   56 2   
    59   55   60 1   
    60   60   61 1   
    61   60   68 1   
    62   61   62 1   
    63   61   64 1   
    64   61   69 1   
    65   62   63 2   
    66   62   72 1   
    67   64   65 1   
    68   64   70 1   
    69   64   71 1   
    70   65   66 1   
    71   65   67 1   
    72   72   73 1   
    73   72   76 1   
    74   73   74 1   
    75   73   77 1   
    76   73   78 1   
    77   74   75 2   
    78   74   79 1   
    79   79   80 1   
    80   79   86 1   
    81   80   81 1   
    82   80   83 1   
    83   80   87 1   
    84   81   82 2   
    85   81   93 1   
    86   83   84 1   
    87   83   85 1   
    88   83   88 1   
    89   84   90 1   
    90   84   91 1   
    91   84   92 1   
    92   85   89 1   
    93   93   94 1   
    94   93  101 1   
    95   94   95 1   
    96   94   97 1   
    97   94  102 1   
    98   95   96 2   
    99   95  112 1   
   100   97   98 1   
   101   97   99 1   
   102   97  103 1   
   103   98  100 1   
   104   98  104 1   
   105   98  105 1   
   106   99  106 1   
   107   99  107 1   
   108   99  108 1   
   109  100  109 1   
   110  100  110 1   
   111  100  111 1   
   112  112  113 1   
   113  112  119 1   
   114  113  114 1   
   115  113  116 1   
   116  113  120 1   
   117  114  115 2   
   118  114  126 1   
   119  116  117 1   
   120  116  118 1   
   121  116  121 1   
   122  117  123 1   
   123  117  124 1   
   124  117  125 1   
   125  118  122 1   
   126  126  127 1   
   127  126  133 1   
   128  127  128 1   
   129  127  130 1   
   130  127  134 1   
   131  128  129 2   
   132  128  140 1   
   133  130  131 1   
   134  130  132 1   
   135  130  135 1   
   136  131  137 1   
   137  131  138 1   
   138  131  139 1   
   139  132  136 1   
   140  140  141 1   
   141  140  149 1   
   142  141  142 1   
   143  141  144 1   
   144  141  150 1   
   145  142  143 2   
   146  142  162 1   
   147  144  145 1   
   148  144  151 1   
   149  144  152 1   
   150  145  146 1   
   151  145  153 1   
   152  145  154 1   
   153  146  147 1   
   154  146  155 1   
   155  146  156 1   
   156  147  148 1   
   157  147  157 1   
   158  147  158 1   
   159  148  159 1   
   160  148  160 1   
   161  148  161 1   
   162  162  163 1   
   163  162  171 1   
   164  163  164 1   
   165  163  166 1   
   166  163  172 1   
   167  164  165 2   
   168  164  177 1   
   169  166  167 1   
   170  166  173 1   
   171  166  174 1   
   172  167  168 1   
   173  167  175 1   
   174  167  176 1   
   175  168  169 1   
   176  168  170 1   
   177  177  178 1   
   178  177  182 1   
   179  178  179 1   
   180  178  180 1   
   181  178  181 1   
   182  184  185 1   
   183  184  186 1   
   184  187  188 1   
   185  187  189 1   
@<TRIPOS>SUBSTRUCTURE
     1 MOL         1 TEMP              0 ****  ****    0 ROOT
