@<TRIPOS>MOLECULE
MOL
  182   178     1     0     0
SMALL
resp


@<TRIPOS>ATOM
      1 C1          0.1870   -3.3400    6.2160 c3        1 MOL     -0.414810
      2 C2          0.1770   -3.2070    4.6510 c         1 MOL      0.789536
      3 O1         -0.8400   -3.1940    3.9750 o         1 MOL     -0.590712
      4 H1          0.0190   -2.3610    6.6630 hc        1 MOL      0.113937
      5 H2         -0.6040   -4.0220    6.5270 hc        1 MOL      0.113937
      6 H3          1.1520   -3.7270    6.5420 hc        1 MOL      0.113937
      7 N1          1.3890   -3.1970    4.1110 n         1 MOL     -0.559497
      8 C3          1.7580   -2.9130    2.7190 c3        1 MOL      0.014510
      9 C4          1.6540   -4.1730    1.8000 c         1 MOL      0.565326
     10 O2          1.8130   -5.2960    2.3350 o         1 MOL     -0.559223
     11 C5          3.2120   -2.4080    2.7530 c3        1 MOL      0.228371
     12 C6          3.6500   -1.6940    1.4860 c         1 MOL      0.305324
     13 O3          4.4210   -0.7390    1.6540 o         1 MOL     -0.603405
     14 O4          3.3020   -1.9290    0.3400 o         1 MOL     -0.603405
     15 H4          2.1770   -3.1660    4.7400 hn        1 MOL      0.282285
     16 H5          1.1160   -2.1130    2.3650 h1        1 MOL     -0.079658
     17 H6          3.8950   -3.2440    2.9480 hc        1 MOL     -0.001912
     18 H7          3.4260   -1.7580    3.6070 hc        1 MOL     -0.001912
     19 N2          1.4360   -3.9780    0.4990 n         1 MOL     -0.150519
     20 C7          1.3880   -5.0630   -0.5280 c3        1 MOL     -0.086783
     21 C8          2.6720   -5.1190   -1.4570 c         1 MOL      0.537449
     22 O5          2.8510   -6.1140   -2.1420 o         1 MOL     -0.574945
     23 C9         -0.0060   -5.0060   -1.1810 c3        1 MOL      0.055243
     24 C10        -0.2250   -6.3830   -1.9450 c3        1 MOL     -0.076870
     25 C11        -1.7510   -6.5260   -2.1140 c3        1 MOL     -0.088476
     26 C12        -2.1660   -7.7390   -3.0740 c3        1 MOL      0.101139
     27 N3         -3.5960   -7.9300   -3.3080 n4        1 MOL     -0.336681
     28 H8          1.2190   -3.0660    0.1050 hn        1 MOL     -0.019869
     29 H9          1.5210   -5.9950    0.0190 h1        1 MOL      0.092946
     30 H10        -0.2190   -4.1850   -1.8670 hc        1 MOL      0.023955
     31 H11        -0.7340   -4.9650   -0.3780 hc        1 MOL      0.023955
     32 H12         0.1080   -7.2640   -1.3900 hc        1 MOL      0.050466
     33 H13         0.2720   -6.4450   -2.9160 hc        1 MOL      0.050466
     34 H14        -2.1470   -5.6130   -2.5560 hc        1 MOL      0.053737
     35 H15        -2.1740   -6.6730   -1.1250 hc        1 MOL      0.053737
     36 H16        -1.7350   -8.6700   -2.6940 hx        1 MOL      0.064063
     37 H17        -1.6300   -7.7170   -4.0200 hx        1 MOL      0.064063
     38 H18        -4.1080   -7.0920   -3.0930 hn        1 MOL      0.266058
     39 H19        -3.7450   -8.0650   -4.2950 hn        1 MOL      0.266058
     40 H20        -4.0870   -8.6120   -2.7500 hn        1 MOL      0.266058
     41 N4          3.4770   -4.0760   -1.4750 n         1 MOL     -0.151677
     42 C13         4.7830   -4.0400   -2.2870 c3        1 MOL      0.005456
     43 C14         5.9950   -3.7490   -1.2790 c         1 MOL      0.448829
     44 O6          7.1210   -4.0890   -1.5830 o         1 MOL     -0.519972
     45 C15         4.7020   -3.0840   -3.4550 c3        1 MOL     -0.104360
     46 C16         4.1980   -1.7060   -3.0040 c         1 MOL      0.701282
     47 O7          5.0290   -0.9240   -2.4010 o         1 MOL     -0.749409
     48 O8          2.9950   -1.3440   -2.9510 o         1 MOL     -0.749409
     49 H21         3.3500   -3.3210   -0.8180 hn        1 MOL     -0.080200
     50 H22         4.9380   -5.0670   -2.6310 h1        1 MOL      0.094274
     51 H23         4.0080   -3.4290   -4.2220 hc        1 MOL      0.052154
     52 H24         5.7160   -3.0190   -3.8510 hc        1 MOL      0.052154
     53 N5          5.7260   -3.1940   -0.1350 n         1 MOL     -0.225870
     54 C17         6.7900   -2.9010    0.8980 c3        1 MOL     -0.144959
     55 C18         7.2560   -1.4370    0.9870 c         1 MOL      0.623630
     56 O9          7.7630   -1.0180    2.0570 o         1 MOL     -0.585950
     57 H25         4.8280   -2.8460    0.1680 hn        1 MOL      0.287754
     58 H26         7.6150   -3.6000    0.8430 h1        1 MOL      0.092538
     59 H27         6.3160   -3.1440    1.8520 h1        1 MOL      0.092538
     60 N6          7.0280   -0.5510    0.0080 n         1 MOL     -0.257396
     61 C19         7.5270    0.8540   -0.0100 c3        1 MOL      0.194556
     62 C20         6.4050    1.8590   -0.1150 c         1 MOL      0.487656
     63 O10         5.3170    1.5720   -0.5770 o         1 MOL     -0.460797
     64 C21         8.5790    1.0240   -1.0840 c3        1 MOL     -0.502186
     65 C22         9.7950    0.1090   -0.8670 c         1 MOL      0.652186
     66 N7         10.6950    0.4050    0.0560 n         1 MOL     -0.759881
     67 O11         9.8650   -0.9620   -1.4110 o         1 MOL     -0.520906
     68 H28         6.3860   -0.8140   -0.7240 hn        1 MOL      0.223175
     69 H29         8.0380    1.0030    0.9330 h1        1 MOL     -0.009517
     70 H30         8.9960    2.0350   -1.1200 hc        1 MOL      0.134764
     71 H31         8.0340    0.8110   -2.0000 hc        1 MOL      0.134764
     72 H32        10.5320    1.2770    0.5320 hn        1 MOL      0.364908
     73 H33        11.4930   -0.1960    0.1680 hn        1 MOL      0.364908
     74 N8          6.8020    3.0830    0.1170 n         1 MOL     -0.321250
     75 C23         5.9970    4.2570   -0.2450 c3        1 MOL     -0.271379
     76 C24         4.6730    4.3360    0.5350 c         1 MOL      0.552735
     77 O12         4.6230    3.9430    1.6890 o         1 MOL     -0.506033
     78 H34         7.6540    3.2670    0.6280 hn        1 MOL      0.302558
     79 H35         5.8370    4.3250   -1.3200 h1        1 MOL      0.123494
     80 H36         6.6390    5.0640    0.1100 h1        1 MOL      0.123494
     81 N9          3.5930    4.7580   -0.0850 n         1 MOL     -0.409555
     82 C25         2.2280    4.8090    0.5790 c3        1 MOL     -0.059027
     83 C26         1.8550    3.2900    0.9610 c         1 MOL      0.781952
     84 O13         2.4620    2.2890    0.5650 o         1 MOL     -0.577494
     85 C27         1.2160    5.4930   -0.3430 c3        1 MOL     -0.080501
     86 C28         1.4030    6.9550   -0.7590 ca        1 MOL      0.081177
     87 C29         1.8120    7.8790    0.1910 ca        1 MOL     -0.148629
     88 C30         1.3380    7.2970   -2.1140 ca        1 MOL     -0.148629
     89 C31         2.1200    9.1890   -0.2290 ca        1 MOL     -0.233629
     90 C32         1.5200    8.5810   -2.5030 ca        1 MOL     -0.233629
     91 C33         1.8720    9.6260   -1.5370 ca        1 MOL      0.289844
     92 O14         1.9850   10.9130   -1.9520 oh        1 MOL     -0.444577
     93 H37         3.8100    5.3260   -0.8920 hn        1 MOL      0.251641
     94 H38         2.2420    5.3240    1.5440 h1        1 MOL      0.078797
     95 H39         0.2420    5.4500    0.1610 hc        1 MOL      0.033159
     96 H40         1.1080    4.7730   -1.1480 hc        1 MOL      0.033159
     97 H41         1.7860    7.6120    1.2370 ha        1 MOL      0.125505
     98 H42         1.1560    6.4890   -2.8020 ha        1 MOL      0.125505
     99 H43         2.4920    9.8620    0.5180 ha        1 MOL      0.148414
    100 H44         1.5340    8.8130   -3.5550 ha        1 MOL      0.148414
    101 H45         2.2400   11.5210   -1.2500 ho        1 MOL      0.369020
    102 N10         0.7060    3.2050    1.6630 n         1 MOL     -0.750362
    103 C34         0.1230    1.9570    2.2550 c3        1 MOL      0.171769
    104 C35        -0.2700    0.8330    1.3320 c         1 MOL      0.299584
    105 O15         0.5840    0.3340    0.5570 o         1 MOL     -0.280678
    106 C36         1.0870    1.3970    3.3810 c3        1 MOL      0.281118
    107 C37         0.5850    0.2370    4.2720 c3        1 MOL     -0.178803
    108 C38         1.6990    2.3760    4.3910 c3        1 MOL     -0.209894
    109 C39        -0.6530    0.4440    5.1320 c3        1 MOL     -0.369426
    110 H46         0.2420    4.0870    1.8240 hn        1 MOL      0.372993
    111 H47        -0.8050    2.3040    2.7190 h1        1 MOL      0.035266
    112 H48         1.9350    1.0220    2.8120 hc        1 MOL     -0.021075
    113 H49         1.3290   -0.0960    4.9860 hc        1 MOL      0.117982
    114 H50         0.3090   -0.5690    3.5790 hc        1 MOL      0.117982
    115 H51         0.9000    2.9160    4.9060 hc        1 MOL      0.046983
    116 H52         2.3720    1.7950    5.0060 hc        1 MOL      0.046983
    117 H53         2.3350    3.1150    3.9080 hc        1 MOL      0.046983
    118 H54        -0.9310   -0.4820    5.6490 hc        1 MOL      0.091999
    119 H55        -0.3790    1.2440    5.8180 hc        1 MOL      0.091999
    120 H56        -1.5060    0.7190    4.5170 hc        1 MOL      0.091999
    121 N11        -1.5540    0.4900    1.2270 n         1 MOL     -0.382404
    122 C40        -1.9620   -0.5970    0.2880 c3        1 MOL     -0.154259
    123 C41        -3.3590   -0.5850   -0.1840 c         1 MOL      0.607692
    124 O16        -3.6810   -1.4380   -1.0440 o         1 MOL     -0.560854
    125 C42        -1.6210   -1.9370    0.9310 c3        1 MOL      0.475943
    126 O17        -2.3670   -2.0940    2.1450 oh        1 MOL     -0.633568
    127 H57        -2.2470    1.0050    1.7480 hn        1 MOL      0.273349
    128 H58        -1.3520   -0.3620   -0.5850 h1        1 MOL      0.111716
    129 H59        -0.5430   -1.9600    1.0990 h1        1 MOL     -0.050482
    130 H60        -1.8070   -2.7450    0.2290 h1        1 MOL     -0.050482
    131 H61        -1.8470   -2.6890    2.6900 ho        1 MOL      0.396444
    132 N12        -4.2750    0.2330    0.3410 n         1 MOL     -0.557175
    133 C43        -5.6320    0.2910   -0.2120 c3        1 MOL      0.137938
    134 C44        -5.7000    0.8930   -1.6680 c         1 MOL      0.577559
    135 O18        -4.7600    1.5520   -2.1330 o         1 MOL     -0.549152
    136 C45        -6.4050    1.1480    0.8490 c3        1 MOL     -0.304619
    137 H62        -4.0170    0.8010    1.1340 hn        1 MOL      0.335156
    138 H63        -6.0900   -0.7010   -0.2530 h1        1 MOL      0.104644
    139 H64        -6.2410    2.1740    0.5230 hc        1 MOL      0.098223
    140 H65        -7.4680    0.9290    0.8310 hc        1 MOL      0.098223
    141 H66        -5.9850    1.1410    1.8510 hc        1 MOL      0.098223
    142 N13        -6.7870    0.7170   -2.4820 n         1 MOL     -0.627353
    143 C46        -8.1300    0.1300   -2.0960 c3        1 MOL      0.362720
    144 C47        -9.3710    0.9150   -2.5200 c         1 MOL      0.415964
    145 O19        -9.4330    1.4690   -3.5990 o         1 MOL     -0.544713
    146 C48        -8.1450   -1.3560   -2.5110 c3        1 MOL     -0.241017
    147 H67        -6.6310    1.0040   -3.4290 hn        1 MOL      0.338337
    148 H68        -8.0780    0.1490   -1.0030 h1        1 MOL     -0.024567
    149 H69        -8.1530   -1.5620   -3.5830 hc        1 MOL      0.066833
    150 H70        -7.2810   -1.8220   -2.0420 hc        1 MOL      0.066833
    151 H71        -9.0140   -1.8250   -2.0600 hc        1 MOL      0.066833
    152 N14       -10.4900    0.9700   -1.7880 n         1 MOL     -0.287827
    153 C49       -10.6730    0.5270   -0.4260 c3        1 MOL     -0.444858
    154 C50       -10.1680    1.6020    0.5670 c         1 MOL      0.572213
    155 O20        -9.8910    1.2750    1.6690 o         1 MOL     -0.516588
    156 C51       -12.1560    0.1760   -0.1500 c3        1 MOL      0.275902
    157 C52       -12.3820   -0.5300    1.1360 c3        1 MOL     -0.236034
    158 C53       -13.8460   -0.7920    1.3240 c         1 MOL      0.698841
    159 O21       -14.2450   -1.8870    0.8070 o         1 MOL     -0.667694
    160 O22       -14.5810    0.0560    1.8690 o         1 MOL     -0.667694
    161 H72       -11.3120    1.3940   -2.1760 hn        1 MOL      0.273496
    162 H73       -10.1230   -0.4030   -0.2600 h1        1 MOL      0.175472
    163 H74       -12.5620   -0.3850   -0.9920 hc        1 MOL     -0.014305
    164 H75       -12.7480    1.0870   -0.2020 hc        1 MOL     -0.014305
    165 H76       -12.0230   -0.0340    2.0370 hc        1 MOL      0.044159
    166 H77       -11.8940   -1.5100    1.0720 hc        1 MOL      0.044159
    167 N15        -9.9070    2.8030    0.0940 n         1 MOL     -0.323471
    168 C54        -9.1380    3.8530    0.7590 c3        1 MOL     -0.069806
    169 H78        -9.2360    3.7450    1.8390 h1        1 MOL      0.062374
    170 H79        -8.0870    3.7660    0.4800 h1        1 MOL      0.062374
    171 H80        -9.5160    4.8280    0.4550 h1        1 MOL      0.062374
    172 H81       -10.0990    3.0080   -0.8760 hn        1 MOL      0.262905
    173 Ca1         2.8960    0.3140   -1.0230 Ca        1 MOL      1.768472
    174 O23         0.7350    1.2860   -2.1150 oh        1 MOL     -0.878311
    175 H82         0.4110    1.0210   -2.9760 ho        1 MOL      0.425323
    176 H83         0.0910    1.9100   -1.8050 ho        1 MOL      0.425323
    177 O24         0.8240   -1.6490   -1.7210 oh        1 MOL     -0.878311
    178 H84        -0.0190   -1.7090   -2.1680 ho        1 MOL      0.425323
    179 H85         1.4700   -1.8280   -2.4000 ho        1 MOL      0.425323
    180 O25         3.3900    2.7190   -2.5490 oh        1 MOL     -0.878311
    181 H86         4.2450    2.9480   -2.8860 ho        1 MOL      0.425323
    182 H87         2.7670    3.2030   -3.0880 ho        1 MOL      0.425323
@<TRIPOS>BOND
     1    1    2 1   
     2    1    4 1   
     3    1    5 1   
     4    1    6 1   
     5    2    3 2   
     6    2    7 1   
     7    7    8 1   
     8    7   15 1   
     9    8    9 1   
    10    8   11 1   
    11    8   16 1   
    12    9   10 2   
    13    9   19 1   
    14   11   12 1   
    15   11   17 1   
    16   11   18 1   
    17   12   13 1   
    18   12   14 1   
    19   19   20 1   
    20   19   28 1   
    21   20   21 1   
    22   20   23 1   
    23   20   29 1   
    24   21   22 2   
    25   21   41 1   
    26   23   24 1   
    27   23   30 1   
    28   23   31 1   
    29   24   25 1   
    30   24   32 1   
    31   24   33 1   
    32   25   26 1   
    33   25   34 1   
    34   25   35 1   
    35   26   27 1   
    36   26   36 1   
    37   26   37 1   
    38   27   38 1   
    39   27   39 1   
    40   27   40 1   
    41   41   42 1   
    42   41   49 1   
    43   42   43 1   
    44   42   45 1   
    45   42   50 1   
    46   43   44 2   
    47   43   53 1   
    48   45   46 1   
    49   45   51 1   
    50   45   52 1   
    51   46   47 1   
    52   46   48 1   
    53   53   54 1   
    54   53   57 1   
    55   54   55 1   
    56   54   58 1   
    57   54   59 1   
    58   55   56 2   
    59   55   60 1   
    60   60   61 1   
    61   60   68 1   
    62   61   62 1   
    63   61   64 1   
    64   61   69 1   
    65   62   63 2   
    66   62   74 1   
    67   64   65 1   
    68   64   70 1   
    69   64   71 1   
    70   65   66 1   
    71   65   67 2   
    72   66   72 1   
    73   66   73 1   
    74   74   75 1   
    75   74   78 1   
    76   75   76 1   
    77   75   79 1   
    78   75   80 1   
    79   76   77 2   
    80   76   81 1   
    81   81   82 1   
    82   81   93 1   
    83   82   83 1   
    84   82   85 1   
    85   82   94 1   
    86   83   84 2   
    87   83  102 1   
    88   85   86 1   
    89   85   95 1   
    90   85   96 1   
    91   86   87 ar  
    92   86   88 ar  
    93   87   89 ar  
    94   87   97 1   
    95   88   90 ar  
    96   88   98 1   
    97   89   91 ar  
    98   89   99 1   
    99   90   91 ar  
   100   90  100 1   
   101   91   92 1   
   102   92  101 1   
   103  102  103 1   
   104  102  110 1   
   105  103  104 1   
   106  103  106 1   
   107  103  111 1   
   108  104  105 2   
   109  104  121 1   
   110  106  107 1   
   111  106  108 1   
   112  106  112 1   
   113  107  109 1   
   114  107  113 1   
   115  107  114 1   
   116  108  115 1   
   117  108  116 1   
   118  108  117 1   
   119  109  118 1   
   120  109  119 1   
   121  109  120 1   
   122  121  122 1   
   123  121  127 1   
   124  122  123 1   
   125  122  125 1   
   126  122  128 1   
   127  123  124 2   
   128  123  132 1   
   129  125  126 1   
   130  125  129 1   
   131  125  130 1   
   132  126  131 1   
   133  132  133 1   
   134  132  137 1   
   135  133  134 1   
   136  133  136 1   
   137  133  138 1   
   138  134  135 2   
   139  134  142 1   
   140  136  139 1   
   141  136  140 1   
   142  136  141 1   
   143  142  143 1   
   144  142  147 1   
   145  143  144 1   
   146  143  146 1   
   147  143  148 1   
   148  144  145 2   
   149  144  152 1   
   150  146  149 1   
   151  146  150 1   
   152  146  151 1   
   153  152  153 1   
   154  152  161 1   
   155  153  154 1   
   156  153  156 1   
   157  153  162 1   
   158  154  155 2   
   159  154  167 1   
   160  156  157 1   
   161  156  163 1   
   162  156  164 1   
   163  157  158 1   
   164  157  165 1   
   165  157  166 1   
   166  158  159 1   
   167  158  160 1   
   168  167  168 1   
   169  167  172 1   
   170  168  169 1   
   171  168  170 1   
   172  168  171 1   
   173  174  175 1   
   174  174  176 1   
   175  177  178 1   
   176  177  179 1   
   177  180  181 1   
   178  180  182 1   
@<TRIPOS>SUBSTRUCTURE
     1 MOL         1 TEMP              0 ****  ****    0 ROOT
