@<TRIPOS>MOLECULE
MOL
  195   189     1     0     0
SMALL
resp


@<TRIPOS>ATOM
      1 C1         -5.0370   -4.9640    1.7880 c3        1 MOL     -0.416723
      2 C2         -3.8600   -4.7900    0.8360 c         1 MOL      0.502726
      3 O1         -3.2480   -3.7140    0.7490 o         1 MOL     -0.523578
      4 H1         -4.7210   -4.7260    2.8030 hc        1 MOL      0.119463
      5 H2         -5.8470   -4.2960    1.4930 hc        1 MOL      0.119463
      6 H3         -5.3870   -5.9960    1.7500 hc        1 MOL      0.119463
      7 N1         -3.4290   -5.8240    0.1050 n         1 MOL     -0.655091
      8 C3         -2.3370   -5.8920   -0.8190 c3        1 MOL     -0.068862
      9 C4         -0.9350   -5.6610   -0.2740 c         1 MOL      0.542012
     10 O2         -0.0060   -5.7930   -1.0720 o         1 MOL     -0.539753
     11 C5         -2.6810   -5.1460   -2.1030 c3        1 MOL      0.073829
     12 C6         -3.9830   -5.6860   -2.7800 c         1 MOL      0.562751
     13 O3         -3.9520   -6.6370   -3.6020 o         1 MOL     -0.685508
     14 O4         -5.0140   -5.0330   -2.4700 o         1 MOL     -0.685508
     15 H4         -3.9620   -6.6830    0.1090 hn        1 MOL      0.399315
     16 H5         -2.2870   -6.9400   -1.1210 h1        1 MOL      0.137447
     17 H6         -1.8870   -5.2850   -2.8370 hc        1 MOL      0.021427
     18 H7         -2.7820   -4.0740   -1.9610 hc        1 MOL      0.021427
     19 N2         -0.7470   -5.2260    0.9850 n         1 MOL     -0.374989
     20 C7          0.5190   -4.9090    1.7370 c3        1 MOL     -0.217411
     21 C8          1.4560   -6.1060    1.9300 c         1 MOL      0.575525
     22 O5          1.1440   -7.2960    1.8050 o         1 MOL     -0.565113
     23 C9          0.1750   -4.1810    3.0530 c3        1 MOL      0.009992
     24 C10        -0.8350   -4.8220    3.9780 c3        1 MOL     -0.221014
     25 C11        -0.1820   -2.7150    2.6470 c3        1 MOL     -0.166991
     26 C12        -1.1280   -4.1960    5.3380 c3        1 MOL     -0.130629
     27 H8         -1.5740   -5.0610    1.5460 hn        1 MOL      0.308613
     28 H9          0.9730   -4.1630    1.0890 h1        1 MOL      0.185455
     29 H10         1.1440   -4.1980    3.5570 hc        1 MOL      0.154701
     30 H11        -0.6600   -5.8990    4.0670 hc        1 MOL      0.111997
     31 H12        -1.8030   -4.7570    3.4660 hc        1 MOL      0.111997
     32 H13        -0.4390   -2.1490    3.5430 hc        1 MOL      0.060009
     33 H14         0.6110   -2.1130    2.1910 hc        1 MOL      0.060009
     34 H15        -1.1280   -2.6610    2.1190 hc        1 MOL      0.060009
     35 H16        -1.5860   -3.2120    5.3340 hc        1 MOL      0.041526
     36 H17        -1.8630   -4.7600    5.9010 hc        1 MOL      0.041526
     37 H18        -0.1950   -4.2180    5.9060 hc        1 MOL      0.041526
     38 N3          2.7280   -5.9890    2.2740 n         1 MOL     -0.479178
     39 C13         3.5510   -4.7860    2.3800 c3        1 MOL      0.004173
     40 C14         4.4730   -4.4780    1.2070 c         1 MOL      0.578991
     41 O6          4.7620   -3.3140    0.9900 o         1 MOL     -0.556785
     42 C15         4.3240   -4.6830    3.7160 c3        1 MOL     -0.250972
     43 C16         5.2280   -5.8390    3.9780 c         1 MOL      0.736905
     44 O7          6.2530   -6.0600    3.3220 o         1 MOL     -0.721623
     45 O8          4.8600   -6.6660    4.8710 o         1 MOL     -0.721623
     46 H19         3.3360   -6.7810    2.3790 hn        1 MOL      0.323260
     47 H20         2.8940   -3.9280    2.3160 h1        1 MOL      0.020652
     48 H21         3.5650   -4.5320    4.4770 hc        1 MOL      0.047622
     49 H22         4.9290   -3.7820    3.6730 hc        1 MOL      0.047622
     50 N4          4.7730   -5.4290    0.3140 n         1 MOL     -0.343167
     51 C17         5.3930   -5.1800   -1.0480 c3        1 MOL     -0.239216
     52 C18         6.7170   -4.4660   -0.8700 c         1 MOL      0.601977
     53 O9          7.4350   -4.7740    0.0530 o         1 MOL     -0.494488
     54 H23         4.5850   -6.3790    0.6060 hn        1 MOL      0.294816
     55 H24         4.6800   -4.6170   -1.6490 h1        1 MOL      0.115196
     56 H25         5.6110   -6.1530   -1.4830 h1        1 MOL      0.115196
     57 N5          7.0470   -3.4790   -1.7500 n         1 MOL     -0.514630
     58 C19         8.3580   -2.7940   -1.6240 c3        1 MOL      0.130468
     59 C20         8.3450   -1.8160   -0.4370 c         1 MOL      0.379516
     60 O10         9.4300   -1.4340   -0.1120 o         1 MOL     -0.550075
     61 C21         8.6820   -1.9210   -2.8720 c3        1 MOL     -0.241241
     62 C22         7.6070   -0.9320   -3.3600 c         1 MOL      0.721502
     63 O11         6.6590   -1.3990   -4.0110 o         1 MOL     -0.695842
     64 O12         7.6220    0.2520   -3.0270 o         1 MOL     -0.695842
     65 H26         6.4420   -3.2780   -2.5300 hn        1 MOL      0.262980
     66 H27         9.1730   -3.5190   -1.5160 h1        1 MOL      0.066380
     67 H28         8.9300   -2.6420   -3.6540 hc        1 MOL      0.035455
     68 H29         9.6270   -1.4000   -2.6990 hc        1 MOL      0.035455
     69 N6          7.1990   -1.4650    0.1200 n         1 MOL     -0.057732
     70 C23         7.1550   -0.5880    1.2430 c3        1 MOL     -0.260797
     71 C24         7.2050    0.9240    0.8550 c         1 MOL      0.408534
     72 O13         7.2740    1.7500    1.7830 o         1 MOL     -0.572211
     73 H30         6.3550   -1.8970   -0.2070 hn        1 MOL      0.216749
     74 H31         8.0020   -0.8540    1.8760 h1        1 MOL      0.131455
     75 H32         6.3150   -0.8450    1.8780 h1        1 MOL      0.131455
     76 N7          7.1940    1.2650   -0.3650 n         1 MOL     -0.027185
     77 C25         7.1180    2.6150   -0.8490 c3        1 MOL      0.107460
     78 C26         5.9180    3.4660   -0.4550 c         1 MOL      0.505574
     79 O14         6.1320    4.6170   -0.0050 o         1 MOL     -0.587168
     80 C27         8.5060    3.4180   -0.6710 c3        1 MOL      0.048781
     81 C28         9.7250    2.7690   -1.3180 c3        1 MOL     -0.096970
     82 C29        10.8310    3.7660   -1.6280 c         1 MOL      0.551648
     83 N8         11.7480    3.9240   -0.6750 n         1 MOL     -0.745120
     84 O15        10.9290    4.4530   -2.6210 o         1 MOL     -0.544165
     85 H33         7.2540    0.5400   -1.0720 hn        1 MOL      0.059102
     86 H34         6.9300    2.6600   -1.9230 h1        1 MOL      0.065935
     87 H35         8.7510    3.5980    0.3730 hc        1 MOL      0.006426
     88 H36         8.3750    4.3490   -1.2380 hc        1 MOL      0.006426
     89 H37         9.3310    2.3660   -2.2510 hc        1 MOL      0.041312
     90 H38         9.9900    1.9390   -0.6740 hc        1 MOL      0.041312
     91 H39        11.9610    3.3110    0.1010 hn        1 MOL      0.327383
     92 H40        12.5070    4.5360   -0.9470 hn        1 MOL      0.327383
     93 N9          4.7100    2.8840   -0.3730 n         1 MOL     -0.409981
     94 C30         3.6490    3.4560    0.4220 c3        1 MOL     -0.070154
     95 C31         2.9110    4.5100   -0.4190 c         1 MOL      0.618878
     96 O16         2.7880    4.3750   -1.6010 o         1 MOL     -0.516710
     97 C32         2.6910    2.3640    0.9020 c3        1 MOL      0.294119
     98 C33         2.2410    1.3370   -0.1820 c3        1 MOL     -0.290502
     99 C34         3.2330    1.6130    2.1300 c3        1 MOL     -0.290502
    100 H41         4.5710    1.9890   -0.8240 hn        1 MOL      0.228225
    101 H42         4.0570    3.9350    1.3170 h1        1 MOL      0.098132
    102 H43         1.7920    2.9020    1.2050 hc        1 MOL     -0.072654
    103 H44         2.0010    1.8640   -1.1050 hc        1 MOL      0.073066
    104 H45         3.0420    0.6220   -0.3670 hc        1 MOL      0.073066
    105 H46         1.3910    0.7510    0.1680 hc        1 MOL      0.073066
    106 H47         2.5900    0.8020    2.4620 hc        1 MOL      0.073066
    107 H48         4.1790    1.1850    1.7920 hc        1 MOL      0.073066
    108 H49         3.4830    2.2610    2.9730 hc        1 MOL      0.073066
    109 N10         2.4590    5.6260    0.2330 n         1 MOL     -0.430429
    110 C35         1.8320    6.7700   -0.4280 c3        1 MOL      0.079924
    111 C36         0.4650    6.3450   -1.0960 c         1 MOL      0.559723
    112 O17         0.2290    6.7040   -2.2570 o         1 MOL     -0.526504
    113 C37         1.6300    7.8330    0.6310 c3        1 MOL     -0.304350
    114 C38         0.8770    8.9840    0.0490 c         1 MOL      0.577514
    115 N11        -0.3220    9.1010    0.5570 n         1 MOL     -0.669719
    116 O18         1.2570    9.7180   -0.8550 o         1 MOL     -0.534004
    117 H50         2.6070    5.5190    1.2270 hn        1 MOL      0.226944
    118 H51         2.5000    7.1380   -1.2100 h1        1 MOL      0.101589
    119 H52         2.5230    8.1610    1.1590 hc        1 MOL      0.101506
    120 H53         1.0890    7.2680    1.3870 hc        1 MOL      0.101506
    121 H54        -0.5950    8.6110    1.3960 hn        1 MOL      0.331653
    122 H55        -0.9060    9.8790    0.2690 hn        1 MOL      0.331653
    123 N12        -0.3350    5.5140   -0.4170 n         1 MOL     -0.484068
    124 C39        -1.6490    4.9210   -0.8430 c3        1 MOL     -0.052021
    125 C40        -2.3580    4.2510    0.3420 c         1 MOL      0.440007
    126 O19        -1.7850    3.3630    1.0140 o         1 MOL     -0.511784
    127 C41        -1.5680    3.8340   -1.9340 c3        1 MOL     -0.038826
    128 C42        -2.9040    3.2910   -2.4050 ca        1 MOL     -0.093759
    129 C43        -3.8220    4.0830   -3.1460 ca        1 MOL     -0.123504
    130 C44        -3.3090    2.0390   -1.9620 ca        1 MOL     -0.123504
    131 C45        -5.0660    3.5420   -3.4730 ca        1 MOL     -0.303222
    132 C46        -4.5350    1.4750   -2.2990 ca        1 MOL     -0.303222
    133 C47        -5.4260    2.2730   -3.0550 ca        1 MOL      0.458974
    134 O20        -6.6280    1.8270   -3.3740 oh        1 MOL     -0.665985
    135 H56         0.1190    5.1270    0.3910 hn        1 MOL      0.297149
    136 H57        -2.2940    5.6660   -1.2880 h1        1 MOL      0.114282
    137 H58        -0.9000    3.0470   -1.5920 hc        1 MOL      0.083508
    138 H59        -0.9390    4.2900   -2.6900 hc        1 MOL      0.083508
    139 H60        -3.6020    5.1270   -3.3430 ha        1 MOL      0.128560
    140 H61        -2.6590    1.5240   -1.2730 ha        1 MOL      0.128560
    141 H62        -5.7700    4.1480   -4.0180 ha        1 MOL      0.157482
    142 H63        -4.7610    0.4940   -1.9020 ha        1 MOL      0.157482
    143 H64        -6.9000    0.9910   -2.9780 ho        1 MOL      0.479303
    144 N13        -3.6260    4.6220    0.5500 n         1 MOL     -0.268273
    145 C48        -4.5520    3.8190    1.3780 c3        1 MOL      0.049613
    146 C49        -6.0630    3.8290    0.9500 c         1 MOL      0.467938
    147 O21        -6.5460    4.8170    0.3920 o         1 MOL     -0.550057
    148 C50        -4.4110    4.2190    2.8650 c3        1 MOL     -0.039820
    149 C51        -4.9260    5.6800    3.2890 c3        1 MOL     -0.056966
    150 C52        -4.5450    5.9420    4.7220 c         1 MOL      0.692898
    151 O22        -3.8170    6.9170    4.9660 o         1 MOL     -0.740503
    152 O23        -5.0550    5.2270    5.6250 o         1 MOL     -0.740503
    153 H65        -3.9200    5.3960   -0.0340 hn        1 MOL      0.233577
    154 H66        -4.2050    2.7830    1.3810 h1        1 MOL      0.047260
    155 H67        -3.3650    4.1450    3.1550 hc        1 MOL      0.014178
    156 H68        -5.0100    3.5020    3.4210 hc        1 MOL      0.014178
    157 H69        -6.0010    5.7570    3.1880 hc        1 MOL     -0.020193
    158 H70        -4.3880    6.4000    2.6700 hc        1 MOL     -0.020193
    159 N14        -6.8950    2.8190    1.1840 n         1 MOL     -0.264782
    160 C53        -6.6630    1.5640    1.8580 c3        1 MOL      0.006599
    161 C54        -7.6330    1.2870    2.9380 c         1 MOL      0.623231
    162 O24        -8.5720    2.0330    3.0670 o         1 MOL     -0.531678
    163 C55        -6.6700    0.3880    0.8490 c3        1 MOL     -0.211689
    164 C56        -7.9530    0.3400    0.0160 c3        1 MOL     -0.305841
    165 C57        -7.7810   -0.6710   -1.0780 c         1 MOL      0.828468
    166 O25        -8.2710   -1.8240   -0.8920 o         1 MOL     -0.795289
    167 O26        -7.2010   -0.4510   -2.1690 o         1 MOL     -0.795289
    168 H71        -7.8470    2.9450    0.8710 hn        1 MOL      0.244375
    169 H72        -5.7030    1.5790    2.3770 h1        1 MOL      0.065423
    170 H73        -6.4750   -0.6000    1.2750 hc        1 MOL      0.071707
    171 H74        -5.7660    0.4860    0.2590 hc        1 MOL      0.071707
    172 H75        -8.1600    1.2880   -0.4790 hc        1 MOL      0.105850
    173 H76        -8.7920    0.0830    0.6520 hc        1 MOL      0.105850
    174 N15        -7.4550    0.2330    3.8390 n         1 MOL     -0.378402
    175 C58        -8.1050   -0.0780    5.0740 c3        1 MOL     -0.168481
    176 H77        -7.3590   -0.3660    5.8150 h1        1 MOL      0.092696
    177 H78        -8.6500    0.7970    5.4290 h1        1 MOL      0.092696
    178 H79        -8.8020   -0.9020    4.9210 h1        1 MOL      0.092696
    179 H80        -6.6560   -0.3350    3.6160 hn        1 MOL      0.249807
    180 Ca1        -6.6150   -3.0870   -2.5840 Ca        1 MOL      1.672334
    181 O27        -5.1240   -1.4390   -4.3290 oh        1 MOL     -0.796523
    182 H81        -4.1930   -1.2230   -4.4230 ho        1 MOL      0.399421
    183 H82        -5.5860   -0.6960   -4.7130 ho        1 MOL      0.399421
    184 O28        -6.0730   -4.1320   -5.1520 oh        1 MOL     -0.796523
    185 H83        -6.1790   -5.0530   -4.9270 ho        1 MOL      0.399421
    186 H84        -6.1640   -4.1090   -6.1030 ho        1 MOL      0.399421
    187 O29        -8.3760   -2.1940   -4.5320 oh        1 MOL     -0.796523
    188 H85        -8.1430   -1.5410   -5.1900 ho        1 MOL      0.399421
    189 H86        -9.2520   -1.9440   -4.2420 ho        1 MOL      0.399421
    190 O30        -8.6900   -4.7740   -2.9230 oh        1 MOL     -0.796523
    191 H87        -9.1720   -4.6150   -2.1060 ho        1 MOL      0.399421
    192 H88        -9.1400   -5.5180   -3.3190 ho        1 MOL      0.399421
    193 O31        -4.4560   -2.2280   -1.3610 oh        1 MOL     -0.796523
    194 H89        -4.2100   -2.7870   -0.6320 ho        1 MOL      0.399421
    195 H90        -3.7430   -1.6020   -1.4510 ho        1 MOL      0.399421
@<TRIPOS>BOND
     1    1    2 1   
     2    1    4 1   
     3    1    5 1   
     4    1    6 1   
     5    2    3 2   
     6    2    7 1   
     7    7    8 1   
     8    7   15 1   
     9    8    9 1   
    10    8   11 1   
    11    8   16 1   
    12    9   10 2   
    13    9   19 1   
    14   11   12 1   
    15   11   17 1   
    16   11   18 1   
    17   12   13 1   
    18   12   14 1   
    19   19   20 1   
    20   19   27 1   
    21   20   21 1   
    22   20   23 1   
    23   20   28 1   
    24   21   22 2   
    25   21   38 1   
    26   23   24 1   
    27   23   25 1   
    28   23   29 1   
    29   24   26 1   
    30   24   30 1   
    31   24   31 1   
    32   25   32 1   
    33   25   33 1   
    34   25   34 1   
    35   26   35 1   
    36   26   36 1   
    37   26   37 1   
    38   38   39 1   
    39   38   46 1   
    40   39   40 1   
    41   39   42 1   
    42   39   47 1   
    43   40   41 2   
    44   40   50 1   
    45   42   43 1   
    46   42   48 1   
    47   42   49 1   
    48   43   44 1   
    49   43   45 1   
    50   50   51 1   
    51   50   54 1   
    52   51   52 1   
    53   51   55 1   
    54   51   56 1   
    55   52   53 2   
    56   52   57 1   
    57   57   58 1   
    58   57   65 1   
    59   58   59 1   
    60   58   61 1   
    61   58   66 1   
    62   59   60 2   
    63   59   69 1   
    64   61   62 1   
    65   61   67 1   
    66   61   68 1   
    67   62   63 1   
    68   62   64 1   
    69   69   70 1   
    70   69   73 1   
    71   70   71 1   
    72   70   74 1   
    73   70   75 1   
    74   71   72 2   
    75   71   76 1   
    76   76   77 1   
    77   76   85 1   
    78   77   78 1   
    79   77   80 1   
    80   77   86 1   
    81   78   79 2   
    82   78   93 1   
    83   80   81 1   
    84   80   87 1   
    85   80   88 1   
    86   81   82 1   
    87   81   89 1   
    88   81   90 1   
    89   82   83 1   
    90   82   84 2   
    91   83   91 1   
    92   83   92 1   
    93   93   94 1   
    94   93  100 1   
    95   94   95 1   
    96   94   97 1   
    97   94  101 1   
    98   95   96 2   
    99   95  109 1   
   100   97   98 1   
   101   97   99 1   
   102   97  102 1   
   103   98  103 1   
   104   98  104 1   
   105   98  105 1   
   106   99  106 1   
   107   99  107 1   
   108   99  108 1   
   109  109  110 1   
   110  109  117 1   
   111  110  111 1   
   112  110  113 1   
   113  110  118 1   
   114  111  112 2   
   115  111  123 1   
   116  113  114 1   
   117  113  119 1   
   118  113  120 1   
   119  114  115 1   
   120  114  116 2   
   121  115  121 1   
   122  115  122 1   
   123  123  124 1   
   124  123  135 1   
   125  124  125 1   
   126  124  127 1   
   127  124  136 1   
   128  125  126 2   
   129  125  144 1   
   130  127  128 1   
   131  127  137 1   
   132  127  138 1   
   133  128  129 ar  
   134  128  130 ar  
   135  129  131 ar  
   136  129  139 1   
   137  130  132 ar  
   138  130  140 1   
   139  131  133 ar  
   140  131  141 1   
   141  132  133 ar  
   142  132  142 1   
   143  133  134 1   
   144  134  143 1   
   145  144  145 1   
   146  144  153 1   
   147  145  146 1   
   148  145  148 1   
   149  145  154 1   
   150  146  147 2   
   151  146  159 1   
   152  148  149 1   
   153  148  155 1   
   154  148  156 1   
   155  149  150 1   
   156  149  157 1   
   157  149  158 1   
   158  150  151 1   
   159  150  152 1   
   160  159  160 1   
   161  159  168 1   
   162  160  161 1   
   163  160  163 1   
   164  160  169 1   
   165  161  162 2   
   166  161  174 1   
   167  163  164 1   
   168  163  170 1   
   169  163  171 1   
   170  164  165 1   
   171  164  172 1   
   172  164  173 1   
   173  165  166 1   
   174  165  167 1   
   175  174  175 1   
   176  174  179 1   
   177  175  176 1   
   178  175  177 1   
   179  175  178 1   
   180  181  182 1   
   181  181  183 1   
   182  184  185 1   
   183  184  186 1   
   184  187  188 1   
   185  187  189 1   
   186  190  191 1   
   187  190  192 1   
   188  193  194 1   
   189  193  195 1   
@<TRIPOS>SUBSTRUCTURE
     1 MOL         1 TEMP              0 ****  ****    0 ROOT
