@<TRIPOS>MOLECULE
MOL
  181   177     1     0     0
SMALL
resp


@<TRIPOS>ATOM
      1 C1          9.5870    7.4600   -1.9740 c3        1 MOL     -0.292964
      2 C2          8.5640    6.4350   -1.3800 c         1 MOL      0.579562
      3 O1          7.3990    6.7620   -1.1130 o         1 MOL     -0.576276
      4 H1          9.7470    7.2430   -3.0300 hc        1 MOL      0.079564
      5 H2          9.1920    8.4710   -1.8680 hc        1 MOL      0.079564
      6 H3         10.5340    7.3810   -1.4390 hc        1 MOL      0.079564
      7 N1          8.8170    5.1310   -1.2440 n         1 MOL     -0.518083
      8 C3         10.0520    4.3800   -1.4390 c3        1 MOL      0.341892
      9 C4         10.4750    3.6520   -0.1170 c         1 MOL      0.473026
     10 O2         11.4450    2.9590   -0.0620 o         1 MOL     -0.539291
     11 C5          9.9460    3.4350   -2.5930 c3        1 MOL     -0.546180
     12 C6          8.7620    2.4870   -2.6000 c         1 MOL      0.907523
     13 O3          7.9670    2.3990   -1.6330 o         1 MOL     -0.789109
     14 O4          8.4310    1.8050   -3.5910 o         1 MOL     -0.789109
     15 H4          8.0520    4.5680   -0.8960 hn        1 MOL      0.384952
     16 H5         10.8840    5.0760   -1.5540 h1        1 MOL      0.007436
     17 H6         10.8870    2.8960   -2.5660 hc        1 MOL      0.127317
     18 H7          9.7760    4.0130   -3.5030 hc        1 MOL      0.127317
     19 N2          9.6600    3.7180    0.9170 n         1 MOL     -0.518871
     20 C7         10.1240    3.4480    2.2580 c3        1 MOL      0.225160
     21 C8         10.0080    1.9450    2.6710 c         1 MOL      0.261909
     22 O5         10.4450    1.5300    3.7670 o         1 MOL     -0.542204
     23 C9          9.2240    4.2470    3.2130 c3        1 MOL     -0.307789
     24 H8          8.7210    4.0910    0.8610 hn        1 MOL      0.247705
     25 H9         11.1550    3.7480    2.4330 h1        1 MOL      0.065896
     26 H10         8.2000    3.9360    3.0190 hc        1 MOL      0.095697
     27 H11         9.4810    4.1840    4.2760 hc        1 MOL      0.095697
     28 H12         9.3450    5.3060    2.9830 hc        1 MOL      0.095697
     29 N3          9.4350    1.1210    1.8370 n         1 MOL     -0.047214
     30 C10         9.0370   -0.2130    2.0270 c3        1 MOL     -0.021442
     31 C11         9.0050   -1.0270    0.7020 c         1 MOL      0.354299
     32 O6          9.0210   -0.5100   -0.4370 o         1 MOL     -0.546056
     33 C12         7.7150   -0.1940    2.7190 c3        1 MOL     -0.046021
     34 C13         6.6000    0.6090    2.0180 c         1 MOL      0.671181
     35 O7          6.6840    0.7390    0.7790 o         1 MOL     -0.665444
     36 O8          5.6170    0.9930    2.7200 o         1 MOL     -0.665444
     37 H13         9.1460    1.5350    0.9660 hn        1 MOL      0.191038
     38 H14         9.7900   -0.5540    2.7360 h1        1 MOL      0.048739
     39 H15         7.7670    0.1640    3.7510 hc        1 MOL      0.004447
     40 H16         7.5280   -1.2630    2.7910 hc        1 MOL      0.004447
     41 N4          9.0470   -2.3650    0.8030 n         1 MOL     -0.157433
     42 C14         8.8900   -3.4170   -0.1800 c3        1 MOL     -0.412122
     43 C15         7.4420   -3.4370   -0.6290 c         1 MOL      0.692102
     44 O9          6.7710   -2.4080   -0.9350 o         1 MOL     -0.551361
     45 H17         9.3090   -2.8160    1.6680 hn        1 MOL      0.238470
     46 H18         9.1450   -4.4160    0.1610 h1        1 MOL      0.166234
     47 H19         9.4700   -3.1450   -1.0530 h1        1 MOL      0.166234
     48 N5          6.8900   -4.6440   -0.7920 n         1 MOL     -0.592203
     49 C16         5.5730   -4.7000   -1.4710 c3        1 MOL      0.203926
     50 C17         4.4310   -4.4100   -0.4270 c         1 MOL      0.665851
     51 O10         4.6130   -4.7090    0.6950 o         1 MOL     -0.531654
     52 C18         5.5560   -6.0390   -2.1930 c3        1 MOL     -0.509939
     53 C19         4.1690   -6.3640   -2.7170 c         1 MOL      0.711392
     54 N6          3.5400   -7.2160   -2.0320 n         1 MOL     -0.747873
     55 O11         3.6290   -5.7030   -3.5530 o         1 MOL     -0.562822
     56 H20         7.2990   -5.5240   -0.5030 hn        1 MOL      0.337497
     57 H21         5.4650   -3.9050   -2.2090 h1        1 MOL      0.027648
     58 H22         5.9170   -6.7860   -1.4840 hc        1 MOL      0.129265
     59 H23         6.2980   -6.0120   -2.9940 hc        1 MOL      0.129265
     60 H24         4.0280   -7.5310   -1.2120 hn        1 MOL      0.365609
     61 H25         2.5570   -7.3350   -2.1690 hn        1 MOL      0.365609
     62 N7          3.2910   -3.8240   -0.9130 n         1 MOL     -0.482220
     63 C20         2.0280   -3.6230   -0.1950 c3        1 MOL      0.021777
     64 C21         1.9830   -2.4590    0.8080 c         1 MOL      0.554952
     65 O12         2.9160   -1.6760    0.9050 o         1 MOL     -0.537675
     66 H26         3.3120   -3.4060   -1.8260 hn        1 MOL      0.267067
     67 H27         1.7940   -4.6080    0.2050 h1        1 MOL      0.082131
     68 H28         1.2170   -3.2850   -0.8320 h1        1 MOL      0.082131
     69 N8          1.0190   -2.3910    1.6480 n         1 MOL     -0.489883
     70 C22        -0.0540   -3.3410    2.0530 c3        1 MOL      0.017642
     71 C23        -1.4520   -2.6950    2.0610 c         1 MOL      0.651032
     72 O13        -2.4710   -3.3770    1.9720 o         1 MOL     -0.583791
     73 C24         0.3200   -4.0820    3.3430 c3        1 MOL      0.392264
     74 C25         1.5830   -4.8830    3.2900 c3        1 MOL     -0.571792
     75 O14         0.4330   -3.0780    4.3910 oh        1 MOL     -0.623150
     76 H29         1.1330   -1.6460    2.3160 hn        1 MOL      0.334435
     77 H30        -0.3130   -4.0720    1.2830 h1        1 MOL      0.048432
     78 H31        -0.5860   -4.6440    3.5610 h1        1 MOL     -0.005207
     79 H32         0.9280   -3.5040    5.0890 ho        1 MOL      0.393580
     80 H33         2.4450   -4.2140    3.2860 hc        1 MOL      0.143229
     81 H34         1.5250   -5.3810    4.2560 hc        1 MOL      0.143229
     82 H35         1.6310   -5.5710    2.4530 hc        1 MOL      0.143229
     83 N9         -1.5180   -1.3550    2.1110 n         1 MOL     -0.524875
     84 C26        -2.7880   -0.6450    2.0480 c3        1 MOL      0.062350
     85 C27        -3.0460   -0.0450    0.5990 c         1 MOL      0.682056
     86 O15        -2.1430    0.6200    0.0800 o         1 MOL     -0.588002
     87 C28        -2.7740    0.5290    3.0830 c3        1 MOL     -0.008155
     88 C29        -2.4520    0.0220    4.5450 c3        1 MOL      0.099167
     89 C30        -4.1280    1.3410    2.9740 c3        1 MOL     -0.140581
     90 C31        -3.4730   -0.8270    5.1430 c3        1 MOL     -0.123147
     91 H36        -0.6720   -0.8110    2.2170 hn        1 MOL      0.275515
     92 H37        -3.5490   -1.3710    2.3450 h1        1 MOL      0.177938
     93 H38        -1.9970    1.2150    2.7650 hc        1 MOL     -0.001606
     94 H39        -2.1850    0.8630    5.1910 hc        1 MOL     -0.022181
     95 H40        -1.5190   -0.5160    4.4770 hc        1 MOL     -0.022181
     96 H41        -5.0030    0.7520    3.2180 hc        1 MOL      0.059519
     97 H42        -4.1040    2.1360    3.7220 hc        1 MOL      0.059519
     98 H43        -4.1500    1.7800    1.9750 hc        1 MOL      0.059519
     99 H44        -4.4040   -0.3250    5.4140 hc        1 MOL      0.013596
    100 H45        -3.7450   -1.5860    4.4050 hc        1 MOL      0.013596
    101 H46        -3.0410   -1.2880    6.0310 hc        1 MOL      0.013596
    102 N10        -4.2090   -0.2960   -0.0980 n         1 MOL     -0.651181
    103 C32        -5.2930   -1.1960    0.3020 c3        1 MOL      0.059754
    104 C33        -6.6320   -0.6160   -0.2510 c         1 MOL      0.451078
    105 O16        -6.6600    0.3070   -1.0750 o         1 MOL     -0.476366
    106 C34        -5.0580   -2.6200   -0.2010 c3        1 MOL      0.003363
    107 C35        -4.4300   -2.4900   -1.6610 c         1 MOL      0.632322
    108 O17        -5.2030   -2.5450   -2.6470 o         1 MOL     -0.696489
    109 O18        -3.1710   -2.4280   -1.7860 o         1 MOL     -0.696489
    110 H47        -4.3070    0.0750   -1.0320 hn        1 MOL      0.390244
    111 H48        -5.4540   -1.2850    1.3770 h1        1 MOL      0.023621
    112 H49        -5.9860   -3.2000   -0.2830 hc        1 MOL     -0.040258
    113 H50        -4.3290   -3.0910    0.4490 hc        1 MOL     -0.040258
    114 N11        -7.7930   -1.1490    0.2140 n         1 MOL     -0.536262
    115 C36        -9.0550   -0.7590   -0.2840 c3        1 MOL      0.443864
    116 C37       -10.0470   -0.0660    0.7090 c         1 MOL     -0.000146
    117 O19       -10.0960   -0.4100    1.9200 o         1 MOL     -0.450948
    118 C38        -9.5970   -2.0330   -0.7760 c3        1 MOL     -0.046471
    119 C39       -10.9620   -2.0470   -1.3780 ca        1 MOL      0.009117
    120 C40       -12.0840   -2.1340   -0.5170 ca        1 MOL     -0.117796
    121 C41       -11.1490   -1.9420   -2.7530 ca        1 MOL     -0.117796
    122 C42       -13.4310   -2.0570   -1.0770 ca        1 MOL     -0.166870
    123 C43       -12.4640   -1.8650   -3.2750 ca        1 MOL     -0.166870
    124 C44       -13.5870   -1.8580   -2.4450 ca        1 MOL     -0.100105
    125 H51        -7.7190   -1.7990    0.9810 hn        1 MOL      0.311412
    126 H52        -8.8570   -0.0660   -1.1010 h1        1 MOL     -0.001521
    127 H53        -9.6130   -2.7840    0.0160 hc        1 MOL      0.025480
    128 H54        -8.8880   -2.4400   -1.4990 hc        1 MOL      0.025480
    129 H55       -11.9320   -2.2580    0.5390 ha        1 MOL      0.125252
    130 H56       -10.3320   -2.0110   -3.4450 ha        1 MOL      0.125252
    131 H57       -14.2640   -1.9500   -0.3950 ha        1 MOL      0.114274
    132 H58       -12.6330   -1.9000   -4.3380 ha        1 MOL      0.114274
    133 H59       -14.5700   -1.6980   -2.8490 ha        1 MOL      0.092785
    134 N12       -10.9730    0.7500    0.1370 n         1 MOL      0.332826
    135 C45       -11.0460    1.3530   -1.2100 c3        1 MOL      0.026771
    136 C46        -9.9290    2.3100   -1.4310 c         1 MOL      0.626804
    137 O20        -9.4220    2.5550   -2.5420 o         1 MOL     -0.619613
    138 C47       -12.5160    1.7800   -1.4480 c3        1 MOL     -0.091179
    139 C48       -12.8970    2.0960   -0.0250 c3        1 MOL     -0.013995
    140 C49       -12.2060    1.0420    0.8520 c3        1 MOL     -0.136820
    141 H60       -10.9240    0.5890   -1.9770 h1        1 MOL     -0.025925
    142 H61       -12.4430    2.6670   -2.0710 hc        1 MOL      0.043258
    143 H62       -13.2070    1.0320   -1.8240 hc        1 MOL      0.043258
    144 H63       -12.6270    3.0990    0.2990 hc        1 MOL      0.007132
    145 H64       -13.9700    1.9570    0.0060 hc        1 MOL      0.007132
    146 H65       -11.9490    1.4380    1.8320 h1        1 MOL      0.040960
    147 H66       -12.7860    0.1240    0.9660 h1        1 MOL      0.040960
    148 N13        -9.4180    2.9080   -0.3830 n         1 MOL     -0.574388
    149 C50        -8.1890    3.7340   -0.4250 c3        1 MOL      0.421236
    150 C51        -8.4540    5.0350   -1.1340 c         1 MOL      0.356942
    151 O21        -9.1210    5.9390   -0.6410 o         1 MOL     -0.576680
    152 C52        -7.8020    4.0040    1.0610 c3        1 MOL      0.012212
    153 C53        -7.1080    2.8210    1.6500 c3        1 MOL     -0.103507
    154 C54        -6.8620    2.9260    3.1480 c         1 MOL      0.743799
    155 O22        -6.3830    4.0300    3.5260 o         1 MOL     -0.732579
    156 O23        -7.2740    2.0520    3.9710 o         1 MOL     -0.732579
    157 H67        -9.8100    2.6880    0.5120 hn        1 MOL      0.304191
    158 H68        -7.4310    3.1520   -0.9450 h1        1 MOL     -0.003664
    159 H69        -8.6960    4.2620    1.6140 hc        1 MOL     -0.012889
    160 H70        -7.0910    4.8210    0.9630 hc        1 MOL     -0.012889
    161 H71        -6.1170    2.7370    1.2060 hc        1 MOL     -0.027026
    162 H72        -7.8280    2.0190    1.4880 hc        1 MOL     -0.027026
    163 N14        -8.0330    5.2780   -2.4030 n         1 MOL     -0.266824
    164 C55        -7.2120    4.5230   -3.3400 c3        1 MOL     -0.250949
    165 H73        -7.4550    4.8240   -4.3590 h1        1 MOL      0.103518
    166 H74        -6.1590    4.7210   -3.1440 h1        1 MOL      0.103518
    167 H75        -7.4100    3.4580   -3.2210 h1        1 MOL      0.103518
    168 H76        -8.1250    6.2250   -2.7470 hn        1 MOL      0.241910
    169 Ca1         6.8780    0.1570   -1.8490 Ca        1 MOL      1.760188
    170 O24         4.8740    2.2160   -1.7010 oh        1 MOL     -0.852687
    171 H77         4.2990    2.2920   -0.9470 ho        1 MOL      0.414815
    172 H78         4.2810    2.2050   -2.4600 ho        1 MOL      0.414815
    173 O25         5.3040   -0.1070   -4.1480 oh        1 MOL     -0.852687
    174 H79         4.5330    0.1800   -4.6340 ho        1 MOL      0.414815
    175 H80         5.8780   -0.4950   -4.8060 ho        1 MOL      0.414815
    176 O26         7.9180   -1.6050   -3.5470 oh        1 MOL     -0.852687
    177 H81         8.4430   -1.2300   -4.2570 ho        1 MOL      0.414815
    178 H82         7.7300   -2.4970   -3.8240 ho        1 MOL      0.414815
    179 O27         4.5090   -0.8300   -1.1530 oh        1 MOL     -0.852687
    180 H83         4.0660   -0.9950   -0.3230 ho        1 MOL      0.414815
    181 H84         3.8050   -0.8630   -1.8040 ho        1 MOL      0.414815
@<TRIPOS>BOND
     1    1    2 1   
     2    1    4 1   
     3    1    5 1   
     4    1    6 1   
     5    2    3 2   
     6    2    7 1   
     7    7    8 1   
     8    7   15 1   
     9    8    9 1   
    10    8   11 1   
    11    8   16 1   
    12    9   10 2   
    13    9   19 1   
    14   11   12 1   
    15   11   17 1   
    16   11   18 1   
    17   12   13 1   
    18   12   14 1   
    19   19   20 1   
    20   19   24 1   
    21   20   21 1   
    22   20   23 1   
    23   20   25 1   
    24   21   22 2   
    25   21   29 1   
    26   23   26 1   
    27   23   27 1   
    28   23   28 1   
    29   29   30 1   
    30   29   37 1   
    31   30   31 1   
    32   30   33 1   
    33   30   38 1   
    34   31   32 2   
    35   31   41 1   
    36   33   34 1   
    37   33   39 1   
    38   33   40 1   
    39   34   35 1   
    40   34   36 1   
    41   41   42 1   
    42   41   45 1   
    43   42   43 1   
    44   42   46 1   
    45   42   47 1   
    46   43   44 2   
    47   43   48 1   
    48   48   49 1   
    49   48   56 1   
    50   49   50 1   
    51   49   52 1   
    52   49   57 1   
    53   50   51 2   
    54   50   62 1   
    55   52   53 1   
    56   52   58 1   
    57   52   59 1   
    58   53   54 1   
    59   53   55 2   
    60   54   60 1   
    61   54   61 1   
    62   62   63 1   
    63   62   66 1   
    64   63   64 1   
    65   63   67 1   
    66   63   68 1   
    67   64   65 2   
    68   64   69 1   
    69   69   70 1   
    70   69   76 1   
    71   70   71 1   
    72   70   73 1   
    73   70   77 1   
    74   71   72 2   
    75   71   83 1   
    76   73   74 1   
    77   73   75 1   
    78   73   78 1   
    79   74   80 1   
    80   74   81 1   
    81   74   82 1   
    82   75   79 1   
    83   83   84 1   
    84   83   91 1   
    85   84   85 1   
    86   84   87 1   
    87   84   92 1   
    88   85   86 2   
    89   85  102 1   
    90   87   88 1   
    91   87   89 1   
    92   87   93 1   
    93   88   90 1   
    94   88   94 1   
    95   88   95 1   
    96   89   96 1   
    97   89   97 1   
    98   89   98 1   
    99   90   99 1   
   100   90  100 1   
   101   90  101 1   
   102  102  103 1   
   103  102  110 1   
   104  103  104 1   
   105  103  106 1   
   106  103  111 1   
   107  104  105 2   
   108  104  114 1   
   109  106  107 1   
   110  106  112 1   
   111  106  113 1   
   112  107  108 1   
   113  107  109 1   
   114  114  115 1   
   115  114  125 1   
   116  115  116 1   
   117  115  118 1   
   118  115  126 1   
   119  116  117 2   
   120  116  134 1   
   121  118  119 1   
   122  118  127 1   
   123  118  128 1   
   124  119  120 ar  
   125  119  121 ar  
   126  120  122 ar  
   127  120  129 1   
   128  121  123 ar  
   129  121  130 1   
   130  122  124 ar  
   131  122  131 1   
   132  123  124 ar  
   133  123  132 1   
   134  124  133 1   
   135  134  135 1   
   136  134  140 1   
   137  135  136 1   
   138  135  138 1   
   139  135  141 1   
   140  136  137 2   
   141  136  148 1   
   142  138  139 1   
   143  138  142 1   
   144  138  143 1   
   145  139  140 1   
   146  139  144 1   
   147  139  145 1   
   148  140  146 1   
   149  140  147 1   
   150  148  149 1   
   151  148  157 1   
   152  149  150 1   
   153  149  152 1   
   154  149  158 1   
   155  150  151 2   
   156  150  163 1   
   157  152  153 1   
   158  152  159 1   
   159  152  160 1   
   160  153  154 1   
   161  153  161 1   
   162  153  162 1   
   163  154  155 1   
   164  154  156 1   
   165  163  164 1   
   166  163  168 1   
   167  164  165 1   
   168  164  166 1   
   169  164  167 1   
   170  170  171 1   
   171  170  172 1   
   172  173  174 1   
   173  173  175 1   
   174  176  177 1   
   175  176  178 1   
   176  179  180 1   
   177  179  181 1   
@<TRIPOS>SUBSTRUCTURE
     1 MOL         1 TEMP              0 ****  ****    0 ROOT
