@<TRIPOS>MOLECULE
MOL
  192   187     1     0     0
SMALL
resp


@<TRIPOS>ATOM
      1 C1          9.1080    1.5750    1.3600 c3        1 MOL     -0.586230
      2 C2          8.0950    0.9280    0.4490 c         1 MOL      0.812987
      3 O1          6.9250    0.7450    0.8020 o         1 MOL     -0.713214
      4 H1          9.7970    2.1770    0.7670 hc        1 MOL      0.148272
      5 H2          8.5960    2.2140    2.0790 hc        1 MOL      0.148272
      6 H3          9.6650    0.8040    1.8900 hc        1 MOL      0.148272
      7 N1          8.4710    0.5070   -0.7400 n         1 MOL     -0.571274
      8 C3          7.6200   -0.0570   -1.7990 c3        1 MOL      0.042267
      9 C4          7.0230   -1.4620   -1.4590 c         1 MOL      0.397640
     10 O2          6.8880   -2.3060   -2.3320 o         1 MOL     -0.434232
     11 C5          8.3980   -0.0570   -3.1240 c3        1 MOL     -0.288473
     12 C6          9.6430   -0.9380   -3.2010 c         1 MOL      0.756699
     13 O3         10.3740   -0.9070   -4.2740 o         1 MOL     -0.665874
     14 O4          9.9840   -1.5590   -2.1970 o         1 MOL     -0.665874
     15 H4          9.4580    0.3400   -0.8560 hn        1 MOL      0.300218
     16 H5          6.7680    0.5800   -2.0190 h1        1 MOL      0.124781
     17 H6          8.6230    0.9860   -3.3400 hc        1 MOL      0.089086
     18 H7          7.7420   -0.3910   -3.9330 hc        1 MOL      0.089086
     19 N2          6.8660   -1.7940   -0.1640 n         1 MOL     -0.260971
     20 C7          6.4290   -3.0390    0.3650 c3        1 MOL      0.073067
     21 C8          4.9180   -3.3850    0.2650 c         1 MOL      0.343866
     22 O5          4.5120   -4.4440   -0.2320 o         1 MOL     -0.515086
     23 C9          6.8520   -3.2380    1.8610 c3        1 MOL     -0.278803
     24 C10         8.4080   -3.3490    1.9850 c3        1 MOL      0.319851
     25 C11         8.8500   -3.6980    3.5050 c3        1 MOL     -0.248522
     26 C12        10.3430   -3.5520    3.8070 c3        1 MOL      0.075226
     27 N3         10.5600   -3.4540    5.2630 n4        1 MOL     -0.216375
     28 H8          7.0110   -1.0510    0.5090 hn        1 MOL      0.273597
     29 H9          6.9490   -3.7740   -0.2440 h1        1 MOL      0.099973
     30 H10         6.4080   -4.1690    2.2300 hc        1 MOL      0.065782
     31 H11         6.5660   -2.4150    2.5120 hc        1 MOL      0.065782
     32 H12         8.7910   -2.3480    1.8140 hc        1 MOL     -0.040894
     33 H13         8.9000   -3.9580    1.2250 hc        1 MOL     -0.040894
     34 H14         8.6000   -4.7330    3.7340 hc        1 MOL      0.068878
     35 H15         8.2680   -3.0790    4.1900 hc        1 MOL      0.068878
     36 H16        10.7630   -2.6640    3.3310 hx        1 MOL      0.078246
     37 H17        10.8320   -4.3720    3.2870 hx        1 MOL      0.078246
     38 H18        10.1090   -4.2650    5.6730 hn        1 MOL      0.246128
     39 H19        11.5350   -3.3610    5.4850 hn        1 MOL      0.246128
     40 H20         9.9760   -2.7730    5.7350 hn        1 MOL      0.246128
     41 N4          3.9680   -2.5720    0.6380 n         1 MOL     -0.179581
     42 C13         3.9610   -1.1840    1.1130 c3        1 MOL      0.006741
     43 C14         3.9130   -0.1140   -0.0070 c         1 MOL      0.429666
     44 O6          3.8340   -0.4250   -1.1910 o         1 MOL     -0.426327
     45 C15         2.7520   -1.0740    2.0850 c3        1 MOL     -0.266799
     46 C16         1.4600   -1.5740    1.4790 c         1 MOL      0.740628
     47 O7          0.9420   -0.9170    0.5420 o         1 MOL     -0.680732
     48 O8          1.0230   -2.6820    1.8080 o         1 MOL     -0.680732
     49 H21         3.0270   -2.9150    0.7680 hn        1 MOL      0.258551
     50 H22         4.8870   -1.0310    1.6620 h1        1 MOL      0.038906
     51 H23         2.7200   -0.0480    2.4500 hc        1 MOL      0.029334
     52 H24         2.8530   -1.8170    2.8700 hc        1 MOL      0.029334
     53 N5          4.0210    1.1470    0.4600 n         1 MOL     -0.366162
     54 C17         4.2060    2.2000   -0.4720 c3        1 MOL      0.014180
     55 C18         2.8750    2.6170   -1.0260 c         1 MOL      0.469111
     56 O9          1.8650    1.8580   -0.8790 o         1 MOL     -0.409597
     57 H25         4.3090    1.2690    1.4180 hn        1 MOL      0.304932
     58 H26         4.8420    1.8230   -1.2730 h1        1 MOL      0.071876
     59 H27         4.6610    3.0610    0.0190 h1        1 MOL      0.071876
     60 N6          2.7440    3.8010   -1.7050 n         1 MOL     -0.530840
     61 C19         1.5930    4.4930   -2.2840 c3        1 MOL      0.446047
     62 C20         1.9280    5.9530   -2.3760 c         1 MOL      0.283997
     63 O10         3.0840    6.4050   -2.5010 o         1 MOL     -0.499837
     64 C21         1.2230    3.8400   -3.5690 c3        1 MOL     -0.288480
     65 C22         1.0180    2.3520   -3.5700 c         1 MOL      0.730804
     66 O11         1.9510    1.6620   -3.9930 o         1 MOL     -0.685989
     67 O12        -0.0860    1.8990   -3.1540 o         1 MOL     -0.685989
     68 H28         3.5590    4.3770   -1.8910 hn        1 MOL      0.263729
     69 H29         0.7960    4.2860   -1.5810 h1        1 MOL     -0.030775
     70 H30         2.0200    4.1500   -4.2340 hc        1 MOL      0.057838
     71 H31         0.3170    4.3480   -3.9190 hc        1 MOL      0.057838
     72 N7          0.9580    6.8560   -2.5760 n         1 MOL     -0.291198
     73 C23        -0.5320    6.6940   -2.5050 c3        1 MOL     -0.259040
     74 C24        -0.9740    6.2380   -1.1130 c         1 MOL      0.668249
     75 O13        -0.4380    6.5430   -0.0680 o         1 MOL     -0.527105
     76 H32         1.2770    7.7750   -2.8580 hn        1 MOL      0.298964
     77 H33        -0.8650    5.9350   -3.2100 h1        1 MOL      0.118372
     78 H34        -0.9110    7.6350   -2.9050 h1        1 MOL      0.118372
     79 N8         -2.1170    5.5450   -1.1400 n         1 MOL     -0.568142
     80 C25        -2.7410    5.0620    0.1160 c3        1 MOL     -0.046451
     81 C26        -1.9370    3.8460    0.6280 c         1 MOL      0.853301
     82 O14        -1.3310    3.1150   -0.1680 o         1 MOL     -0.707545
     83 C27        -4.2310    4.8280   -0.1810 c3        1 MOL      0.353551
     84 C28        -5.0190    4.1940    0.9380 c3        1 MOL     -0.433390
     85 O15        -4.2270    3.8340   -1.1780 oh        1 MOL     -0.623237
     86 H35        -2.5310    5.2810   -2.0230 hn        1 MOL      0.304288
     87 H36        -2.6580    5.9300    0.7530 h1        1 MOL      0.085323
     88 H37        -4.6560    5.7490   -0.5710 h1        1 MOL      0.040338
     89 H38        -4.9680    3.9410   -1.7770 ho        1 MOL      0.412684
     90 H39        -4.6070    3.2530    1.2960 hc        1 MOL      0.104654
     91 H40        -4.9910    4.9310    1.7390 hc        1 MOL      0.104654
     92 H41        -6.0820    4.0800    0.6970 hc        1 MOL      0.104654
     93 N9         -1.9140    3.7080    1.9240 n         1 MOL     -0.624546
     94 C29        -1.1920    2.7370    2.7560 c3        1 MOL      0.063592
     95 C30        -1.7200    1.3340    2.5950 c         1 MOL      0.648881
     96 O16        -1.7070    0.7950    1.4790 o         1 MOL     -0.579624
     97 C31         0.3830    2.7970    2.6540 c3        1 MOL      0.452340
     98 C32         0.9450    4.2280    2.6250 c3        1 MOL     -0.229260
     99 C33         0.9480    2.0200    3.8620 c3        1 MOL     -0.506552
    100 C34         0.5190    5.2240    3.7390 c3        1 MOL     -0.181844
    101 H42        -2.4400    4.3220    2.5240 hn        1 MOL      0.310612
    102 H43        -1.4730    3.0340    3.7660 h1        1 MOL      0.017361
    103 H44         0.7220    2.2210    1.7970 hc        1 MOL     -0.210222
    104 H45         0.6770    4.6430    1.6530 hc        1 MOL      0.094845
    105 H46         2.0230    4.1810    2.5330 hc        1 MOL      0.094845
    106 H47         0.5300    2.4420    4.7790 hc        1 MOL      0.126158
    107 H48         0.7220    0.9580    3.7700 hc        1 MOL      0.126158
    108 H49         2.0260    2.0250    3.7890 hc        1 MOL      0.126158
    109 H50         0.6520    4.8740    4.7700 hc        1 MOL      0.052665
    110 H51         1.1950    6.0840    3.7300 hc        1 MOL      0.052665
    111 H52        -0.5030    5.5620    3.5710 hc        1 MOL      0.052665
    112 N10        -2.2410    0.7340    3.6530 n         1 MOL     -0.567923
    113 C35        -2.7060   -0.6700    3.6300 c3        1 MOL     -0.133440
    114 C36        -4.0300   -0.9560    2.8690 c         1 MOL      0.640465
    115 O17        -4.4780   -2.0820    2.8090 o         1 MOL     -0.557192
    116 C37        -2.7080   -1.2260    5.0510 c3        1 MOL      0.436186
    117 C38        -3.7600   -0.6810    6.0970 c3        1 MOL     -0.299522
    118 O18        -1.4690   -1.0200    5.6520 oh        1 MOL     -0.619954
    119 H53        -2.3140    1.2660    4.5070 hn        1 MOL      0.310079
    120 H54        -1.9720   -1.1870    3.0240 h1        1 MOL      0.111086
    121 H55        -2.9330   -2.2890    4.9690 h1        1 MOL     -0.006013
    122 H56        -0.8010   -1.4830    5.1400 ho        1 MOL      0.399335
    123 H57        -3.6150   -1.2160    7.0350 hc        1 MOL      0.081486
    124 H58        -3.6730    0.3730    6.3380 hc        1 MOL      0.081486
    125 H59        -4.7430   -0.8830    5.6840 hc        1 MOL      0.081486
    126 N11        -4.7040    0.0220    2.3290 n         1 MOL     -0.321296
    127 C39        -6.0430   -0.1520    1.7500 c3        1 MOL     -0.180323
    128 C40        -6.0150   -0.8800    0.3880 c         1 MOL      0.521739
    129 O19        -5.3340   -0.4090   -0.5690 o         1 MOL     -0.495157
    130 C41        -6.8430    1.1790    1.6820 c3        1 MOL      0.417923
    131 C42        -8.3160    1.0400    1.2680 c3        1 MOL     -0.326603
    132 O20        -6.8080    1.8080    2.9520 oh        1 MOL     -0.552746
    133 H60        -4.3170    0.9510    2.4300 hn        1 MOL      0.205120
    134 H61        -6.6080   -0.7680    2.4520 h1        1 MOL      0.097359
    135 H62        -6.3850    1.7690    0.8900 h1        1 MOL     -0.036814
    136 H63        -5.8690    1.9380    3.1320 ho        1 MOL      0.331334
    137 H64        -8.4640    0.7370    0.2320 hc        1 MOL      0.085646
    138 H65        -8.8700    0.3970    1.9560 hc        1 MOL      0.085646
    139 H66        -8.7960    2.0040    1.3960 hc        1 MOL      0.085646
    140 N12        -6.7710   -1.9640    0.3140 n         1 MOL     -0.310300
    141 C43        -6.8730   -2.9650   -0.7600 c3        1 MOL      0.002533
    142 C44        -5.5830   -3.1430   -1.6070 c         1 MOL      0.523129
    143 O21        -5.4970   -3.0100   -2.8180 o         1 MOL     -0.509058
    144 C45        -8.0680   -2.5300   -1.5820 c3        1 MOL     -0.085083
    145 C46        -9.4390   -2.5200   -0.8300 c3        1 MOL      0.155129
    146 C47       -10.5930   -2.3170   -1.7850 c3        1 MOL     -0.064329
    147 C48       -11.9400   -2.3680   -1.0040 c3        1 MOL     -0.125876
    148 N13       -12.2100   -1.2740   -0.0140 n4        1 MOL     -0.100435
    149 H67        -7.1730   -2.2420    1.1950 hn        1 MOL      0.220322
    150 H68        -7.0960   -3.9630   -0.3750 h1        1 MOL      0.070228
    151 H69        -8.1980   -3.1990   -2.4370 hc        1 MOL      0.052563
    152 H70        -7.8490   -1.5710   -2.0560 hc        1 MOL      0.052563
    153 H71        -9.3590   -1.6430   -0.1920 hc        1 MOL     -0.042875
    154 H72        -9.5930   -3.4800   -0.3210 hc        1 MOL     -0.042875
    155 H73       -10.5890   -3.1340   -2.4990 hc        1 MOL      0.057563
    156 H74       -10.5350   -1.3610   -2.3000 hc        1 MOL      0.057563
    157 H75       -11.9730   -3.3330   -0.5020 hx        1 MOL      0.122565
    158 H76       -12.8050   -2.3240   -1.6560 hx        1 MOL      0.122565
    159 H77       -12.2160   -0.3750   -0.4840 hn        1 MOL      0.160130
    160 H78       -13.1040   -1.3970    0.4440 hn        1 MOL      0.160130
    161 H79       -11.5250   -1.1420    0.7090 hn        1 MOL      0.160130
    162 N14        -4.4660   -3.4360   -0.8990 n         1 MOL     -0.461142
    163 C49        -3.1480   -3.4530   -1.4360 c3        1 MOL      0.288057
    164 C50        -2.0480   -2.8600   -0.4580 c         1 MOL      0.353865
    165 O22        -1.7410   -1.6500   -0.5080 o         1 MOL     -0.542604
    166 C51        -2.7710   -4.7360   -2.0670 c3        1 MOL     -0.240412
    167 C52        -3.3980   -4.9420   -3.4860 c3        1 MOL     -0.126641
    168 C53        -2.9240   -6.3080   -3.9940 c         1 MOL      0.688024
    169 O23        -1.9270   -6.4850   -4.7320 o         1 MOL     -0.608398
    170 O24        -3.6360   -7.2200   -3.6160 o         1 MOL     -0.608398
    171 H80        -4.5620   -3.5130    0.1100 hn        1 MOL      0.263890
    172 H81        -3.0800   -2.7520   -2.2680 h1        1 MOL      0.113420
    173 H82        -3.2140   -5.4910   -1.4150 hc        1 MOL      0.094591
    174 H83        -1.6910   -4.8410   -2.1370 hc        1 MOL      0.094591
    175 H84        -3.1140   -4.1390   -4.1610 hc        1 MOL      0.031127
    176 H85        -4.4860   -5.0550   -3.5020 hc        1 MOL      0.031127
    177 N15        -1.4960   -3.6280    0.4990 n         1 MOL     -0.360648
    178 C54        -1.9930   -4.9110    1.0470 c3        1 MOL      0.035591
    179 H86        -2.7940   -5.2900    0.4120 h1        1 MOL      0.021041
    180 H87        -1.1790   -5.6350    1.0740 h1        1 MOL      0.021041
    181 H88        -2.3730   -4.7530    2.0560 h1        1 MOL      0.021041
    182 H89        -0.7460   -3.2280    1.0500 hn        1 MOL      0.345541
    183 Ca1        -0.5440    0.6420   -0.9290 Ca        1 MOL      1.746396
    184 O25         1.5680   -0.7670   -2.7090 oh        1 MOL     -0.893475
    185 H90         2.4420   -0.8790   -2.3220 ho        1 MOL      0.419271
    186 H91         1.7030   -0.1290   -3.4130 ho        1 MOL      0.419271
    187 O26        -1.5280   -0.3880   -3.3980 oh        1 MOL     -0.893475
    188 H92        -0.8390   -0.1300   -4.0250 ho        1 MOL      0.419271
    189 H93        -2.2710   -0.6200   -3.9510 ho        1 MOL      0.419271
    190 O27        -3.1720    1.0060   -1.2830 oh        1 MOL     -0.893475
    191 H94        -3.8990    0.3770   -1.2130 ho        1 MOL      0.419271
    192 H95        -3.5720    1.8530   -1.1190 ho        1 MOL      0.419271
@<TRIPOS>BOND
     1    1    2 1   
     2    1    4 1   
     3    1    5 1   
     4    1    6 1   
     5    2    3 2   
     6    2    7 1   
     7    7    8 1   
     8    7   15 1   
     9    8    9 1   
    10    8   11 1   
    11    8   16 1   
    12    9   10 2   
    13    9   19 1   
    14   11   12 1   
    15   11   17 1   
    16   11   18 1   
    17   12   13 1   
    18   12   14 1   
    19   19   20 1   
    20   19   28 1   
    21   20   21 1   
    22   20   23 1   
    23   20   29 1   
    24   21   22 2   
    25   21   41 1   
    26   23   24 1   
    27   23   30 1   
    28   23   31 1   
    29   24   25 1   
    30   24   32 1   
    31   24   33 1   
    32   25   26 1   
    33   25   34 1   
    34   25   35 1   
    35   26   27 1   
    36   26   36 1   
    37   26   37 1   
    38   27   38 1   
    39   27   39 1   
    40   27   40 1   
    41   41   42 1   
    42   41   49 1   
    43   42   43 1   
    44   42   45 1   
    45   42   50 1   
    46   43   44 2   
    47   43   53 1   
    48   45   46 1   
    49   45   51 1   
    50   45   52 1   
    51   46   47 1   
    52   46   48 1   
    53   53   54 1   
    54   53   57 1   
    55   54   55 1   
    56   54   58 1   
    57   54   59 1   
    58   55   56 2   
    59   55   60 1   
    60   60   61 1   
    61   60   68 1   
    62   61   62 1   
    63   61   64 1   
    64   61   69 1   
    65   62   63 2   
    66   62   72 1   
    67   64   65 1   
    68   64   70 1   
    69   64   71 1   
    70   65   66 1   
    71   65   67 1   
    72   72   73 1   
    73   72   76 1   
    74   73   74 1   
    75   73   77 1   
    76   73   78 1   
    77   74   75 2   
    78   74   79 1   
    79   79   80 1   
    80   79   86 1   
    81   80   81 1   
    82   80   83 1   
    83   80   87 1   
    84   81   82 2   
    85   81   93 1   
    86   83   84 1   
    87   83   85 1   
    88   83   88 1   
    89   84   90 1   
    90   84   91 1   
    91   84   92 1   
    92   85   89 1   
    93   93   94 1   
    94   93  101 1   
    95   94   95 1   
    96   94   97 1   
    97   94  102 1   
    98   95   96 2   
    99   95  112 1   
   100   97   98 1   
   101   97   99 1   
   102   97  103 1   
   103   98  100 1   
   104   98  104 1   
   105   98  105 1   
   106   99  106 1   
   107   99  107 1   
   108   99  108 1   
   109  100  109 1   
   110  100  110 1   
   111  100  111 1   
   112  112  113 1   
   113  112  119 1   
   114  113  114 1   
   115  113  116 1   
   116  113  120 1   
   117  114  115 2   
   118  114  126 1   
   119  116  117 1   
   120  116  118 1   
   121  116  121 1   
   122  117  123 1   
   123  117  124 1   
   124  117  125 1   
   125  118  122 1   
   126  126  127 1   
   127  126  133 1   
   128  127  128 1   
   129  127  130 1   
   130  127  134 1   
   131  128  129 2   
   132  128  140 1   
   133  130  131 1   
   134  130  132 1   
   135  130  135 1   
   136  131  137 1   
   137  131  138 1   
   138  131  139 1   
   139  132  136 1   
   140  140  141 1   
   141  140  149 1   
   142  141  142 1   
   143  141  144 1   
   144  141  150 1   
   145  142  143 2   
   146  142  162 1   
   147  144  145 1   
   148  144  151 1   
   149  144  152 1   
   150  145  146 1   
   151  145  153 1   
   152  145  154 1   
   153  146  147 1   
   154  146  155 1   
   155  146  156 1   
   156  147  148 1   
   157  147  157 1   
   158  147  158 1   
   159  148  159 1   
   160  148  160 1   
   161  148  161 1   
   162  162  163 1   
   163  162  171 1   
   164  163  164 1   
   165  163  166 1   
   166  163  172 1   
   167  164  165 2   
   168  164  177 1   
   169  166  167 1   
   170  166  173 1   
   171  166  174 1   
   172  167  168 1   
   173  167  175 1   
   174  167  176 1   
   175  168  169 1   
   176  168  170 1   
   177  177  178 1   
   178  177  182 1   
   179  178  179 1   
   180  178  180 1   
   181  178  181 1   
   182  184  185 1   
   183  184  186 1   
   184  187  188 1   
   185  187  189 1   
   186  190  191 1   
   187  190  192 1   
@<TRIPOS>SUBSTRUCTURE
     1 MOL         1 TEMP              0 ****  ****    0 ROOT
