@<TRIPOS>MOLECULE
MOL
  192   187     1     0     0
SMALL
resp


@<TRIPOS>ATOM
      1 C1         -8.3680    0.5640   -3.2050 c3        1 MOL     -0.558560
      2 C2         -7.8540    0.6040   -1.7880 c         1 MOL      0.730370
      3 O1         -6.7090    1.0950   -1.5880 o         1 MOL     -0.660221
      4 H1         -7.9800   -0.3220   -3.7060 hc        1 MOL      0.136878
      5 H2         -9.4570    0.5270   -3.1950 hc        1 MOL      0.136878
      6 H3         -8.0390    1.4560   -3.7370 hc        1 MOL      0.136878
      7 N1         -8.6290    0.1030   -0.8370 n         1 MOL     -0.221066
      8 C3         -8.2790    0.0600    0.5010 c3        1 MOL     -0.317124
      9 C4         -7.4770   -1.2260    0.8590 c         1 MOL      0.660776
     10 O2         -7.3910   -1.5270    2.0640 o         1 MOL     -0.468990
     11 C5         -9.5350    0.2550    1.4020 c3        1 MOL     -0.143653
     12 C6        -10.6460   -0.7860    1.3170 c         1 MOL      0.704365
     13 O3        -11.3750   -0.9780    2.3030 o         1 MOL     -0.682988
     14 O4        -10.7840   -1.4020    0.2110 o         1 MOL     -0.682988
     15 H4         -9.5480   -0.2640   -1.0560 hn        1 MOL      0.143163
     16 H5         -7.6770    0.9220    0.7790 h1        1 MOL      0.174874
     17 H6         -9.9220    1.2280    1.0810 hc        1 MOL      0.059974
     18 H7         -9.3210    0.2400    2.4730 hc        1 MOL      0.059974
     19 N2         -6.7830   -1.9230   -0.0680 n         1 MOL     -0.554884
     20 C7         -6.1890   -3.3250    0.1030 c3        1 MOL      0.055313
     21 C8         -4.9470   -3.3130    1.0210 c         1 MOL      0.415884
     22 O5         -4.8680   -4.2550    1.8190 o         1 MOL     -0.532351
     23 C9         -5.9410   -4.1770   -1.1980 c3        1 MOL     -0.019004
     24 C10        -7.2500   -4.3650   -1.9180 c3        1 MOL     -0.105832
     25 C11        -7.1690   -5.5650   -2.8670 c3        1 MOL      0.086630
     26 C12        -8.3770   -5.5750   -3.9320 c3        1 MOL     -0.082157
     27 N3         -9.7500   -5.3130   -3.3090 n4        1 MOL     -0.220285
     28 H8         -6.7920   -1.5330   -1.0020 hn        1 MOL      0.226548
     29 H9         -6.9420   -3.8160    0.7200 h1        1 MOL      0.105764
     30 H10        -5.5780   -5.1540   -0.8800 hc        1 MOL      0.047163
     31 H11        -5.1150   -3.6940   -1.7100 hc        1 MOL      0.047163
     32 H12        -7.4360   -3.4800   -2.5300 hc        1 MOL      0.039140
     33 H13        -8.0210   -4.4770   -1.1600 hc        1 MOL      0.039140
     34 H14        -7.1250   -6.5500   -2.3790 hc        1 MOL      0.032400
     35 H15        -6.2640   -5.5330   -3.4670 hc        1 MOL      0.032400
     36 H16        -8.2910   -6.5160   -4.4700 hx        1 MOL      0.094618
     37 H17        -8.1250   -4.7350   -4.5750 hx        1 MOL      0.094618
     38 H18       -10.4980   -5.4050   -3.9770 hn        1 MOL      0.293800
     39 H19        -9.9020   -6.0370   -2.6240 hn        1 MOL      0.293800
     40 H20        -9.9140   -4.4460   -2.8120 hn        1 MOL      0.293800
     41 N4         -3.9200   -2.4400    0.9710 n         1 MOL     -0.282801
     42 C13        -3.6840   -1.3230    0.0060 c3        1 MOL     -0.076181
     43 C14        -3.7920    0.1600    0.6160 c         1 MOL      0.343970
     44 O6         -3.8930    0.3510    1.8420 o         1 MOL     -0.452311
     45 C15        -2.4710   -1.4720   -0.9180 c3        1 MOL     -0.013578
     46 C16        -1.1320   -1.7710   -0.2770 c         1 MOL      0.521510
     47 O7         -0.8080   -1.2220    0.8450 o         1 MOL     -0.590420
     48 O8         -0.3990   -2.6170   -0.7780 o         1 MOL     -0.590420
     49 H21        -3.2610   -2.6960    1.6850 hn        1 MOL      0.303905
     50 H22        -4.5150   -1.3230   -0.7000 h1        1 MOL      0.141949
     51 H23        -2.4220   -0.5490   -1.4890 hc        1 MOL      0.001876
     52 H24        -2.6940   -2.2850   -1.6090 hc        1 MOL      0.001876
     53 N5         -3.8770    1.1620   -0.2180 n         1 MOL     -0.209687
     54 C17        -3.9230    2.6060    0.2400 c3        1 MOL     -0.123268
     55 C18        -2.5990    3.0460    0.8750 c         1 MOL      0.471714
     56 O9         -1.5860    2.3680    0.7850 o         1 MOL     -0.520238
     57 H25        -4.1310    1.0040   -1.1850 hn        1 MOL      0.261472
     58 H26        -4.7180    2.8000    0.9500 h1        1 MOL      0.102802
     59 H27        -4.1100    3.2900   -0.5900 h1        1 MOL      0.102802
     60 N6         -2.5120    4.2510    1.4570 n         1 MOL     -0.349159
     61 C19        -1.3520    5.0600    1.9000 c3        1 MOL      0.088058
     62 C20        -1.5520    6.5660    1.7360 c         1 MOL      0.482480
     63 O10        -2.6410    7.0060    1.4450 o         1 MOL     -0.536528
     64 C21        -1.1720    4.8050    3.4390 c3        1 MOL     -0.024628
     65 C22        -0.3680    3.5540    3.8350 c         1 MOL      0.542202
     66 O11         0.5320    3.1070    3.0800 o         1 MOL     -0.651474
     67 O12        -0.6350    2.9900    4.9340 o         1 MOL     -0.651474
     68 H28        -3.3630    4.7950    1.4400 hn        1 MOL      0.230325
     69 H29        -0.5020    4.7330    1.3150 h1        1 MOL      0.125311
     70 H30        -2.1810    4.8530    3.8520 hc        1 MOL      0.022993
     71 H31        -0.6140    5.6490    3.8380 hc        1 MOL      0.022993
     72 N7         -0.5380    7.3910    1.8320 n         1 MOL     -0.494207
     73 C23         0.9280    7.0740    1.9540 c3        1 MOL      0.040596
     74 C24         1.4160    6.5360    0.6610 c         1 MOL      0.607209
     75 O13         0.9570    6.9340   -0.4440 o         1 MOL     -0.542913
     76 H32        -0.9200    8.3080    1.6210 hn        1 MOL      0.322620
     77 H33         1.2260    6.3970    2.7500 h1        1 MOL      0.057473
     78 H34         1.5740    7.9430    2.0920 h1        1 MOL      0.057473
     79 N8          2.3790    5.6470    0.7470 n         1 MOL     -0.560860
     80 C25         2.9690    4.8570   -0.3590 c3        1 MOL     -0.042244
     81 C26         1.9620    3.7830   -0.7440 c         1 MOL      0.809162
     82 O14         1.3280    3.1180    0.1210 o         1 MOL     -0.864611
     83 C27         4.3450    4.2170    0.0260 c3        1 MOL      0.600400
     84 C28         5.4950    5.1930    0.1900 c3        1 MOL     -0.320009
     85 O15         4.8010    3.2520   -0.8830 oh        1 MOL     -0.707832
     86 H35         2.8130    5.4130    1.6300 hn        1 MOL      0.287936
     87 H36         3.2590    5.4620   -1.2180 h1        1 MOL      0.061810
     88 H37         4.2320    3.6320    0.9460 h1        1 MOL     -0.097118
     89 H38         5.4660    2.8320   -0.3310 ho        1 MOL      0.411732
     90 H39         5.6490    5.7580   -0.7290 hc        1 MOL      0.075031
     91 H40         5.2520    5.9010    0.9910 hc        1 MOL      0.075031
     92 H41         6.4190    4.6590    0.3840 hc        1 MOL      0.075031
     93 N9          1.7040    3.6270   -2.0240 n         1 MOL     -0.514770
     94 C29         0.8350    2.5930   -2.7170 c3        1 MOL      0.123783
     95 C30         1.1200    1.1530   -2.2400 c         1 MOL      0.337183
     96 O16         0.6420    0.6450   -1.2090 o         1 MOL     -0.545729
     97 C31        -0.7030    2.9290   -2.6520 c3        1 MOL     -0.035036
     98 C32        -1.1220    4.1390   -3.5140 c3        1 MOL      0.137746
     99 C33        -1.5450    1.7140   -3.1850 c3        1 MOL     -0.469317
    100 C34        -2.4720    4.8750   -3.1730 c3        1 MOL     -0.188645
    101 H42         2.1670    4.3260   -2.5890 hn        1 MOL      0.290070
    102 H43         0.9990    2.5310   -3.7990 h1        1 MOL      0.032397
    103 H44        -1.0420    3.1430   -1.6290 hc        1 MOL      0.151219
    104 H45        -1.3300    3.7460   -4.5100 hc        1 MOL     -0.027103
    105 H46        -0.2900    4.8280   -3.5800 hc        1 MOL     -0.027103
    106 H47        -1.2790    0.7760   -2.7070 hc        1 MOL      0.134751
    107 H48        -2.5970    1.9910   -3.2900 hc        1 MOL      0.134751
    108 H49        -1.2940    1.4380   -4.2160 hc        1 MOL      0.134751
    109 H50        -2.5220    5.6260   -3.9570 hc        1 MOL      0.049573
    110 H51        -3.3080    4.1790   -3.0630 hc        1 MOL      0.049573
    111 H52        -2.3940    5.3620   -2.2010 hc        1 MOL      0.049573
    112 N10         1.9510    0.4730   -2.9780 n         1 MOL     -0.159942
    113 C35         2.2420   -0.9790   -2.8480 c3        1 MOL     -0.063349
    114 C36         3.7150   -1.4030   -3.2200 c         1 MOL      0.371517
    115 O17         3.9950   -2.6130   -3.2610 o         1 MOL     -0.490112
    116 C37         1.4030   -1.8480   -3.7580 c3        1 MOL      0.409610
    117 C38         1.4650   -1.4290   -5.2310 c3        1 MOL     -0.444838
    118 O18         0.0560   -1.7100   -3.3070 oh        1 MOL     -0.591541
    119 H53         2.2920    0.9390   -3.8060 hn        1 MOL      0.209871
    120 H54         2.1750   -1.2750   -1.7960 h1        1 MOL      0.175268
    121 H55         1.7160   -2.8800   -3.6080 h1        1 MOL      0.023914
    122 H56         0.0110   -2.0490   -2.4150 ho        1 MOL      0.286258
    123 H57         0.7220   -1.9270   -5.8550 hc        1 MOL      0.111270
    124 H58         1.2070   -0.3920   -5.3980 hc        1 MOL      0.111270
    125 H59         2.4650   -1.6970   -5.5840 hc        1 MOL      0.111270
    126 N11         4.6330   -0.4180   -3.4390 n         1 MOL     -0.397841
    127 C39         6.1410   -0.6760   -3.2630 c3        1 MOL      0.274614
    128 C40         6.5270   -1.1540   -1.8540 c         1 MOL      0.391255
    129 O19         6.9210   -0.3460   -1.0030 o         1 MOL     -0.500477
    130 C41         6.9110    0.5570   -3.6970 c3        1 MOL      0.342848
    131 C42         8.3910    0.1310   -3.8820 c3        1 MOL     -0.514992
    132 O20         6.4810    1.1340   -4.9260 oh        1 MOL     -0.643284
    133 H60         4.2490    0.5220   -3.4100 hn        1 MOL      0.240827
    134 H61         6.4420   -1.4370   -3.9810 h1        1 MOL      0.028344
    135 H62         6.8520    1.2840   -2.8910 h1        1 MOL      0.002993
    136 H63         7.1730    1.7650   -5.1630 ho        1 MOL      0.417071
    137 H64         8.9060   -0.3370   -3.0380 hc        1 MOL      0.127345
    138 H65         8.5730   -0.6640   -4.6020 hc        1 MOL      0.127345
    139 H66         8.9720    1.0260   -4.1050 hc        1 MOL      0.127345
    140 N12         6.3130   -2.4650   -1.5150 n         1 MOL     -0.671429
    141 C43         6.3770   -3.0760   -0.1830 c3        1 MOL      0.414318
    142 C44         5.1400   -2.5800    0.6660 c         1 MOL      0.466573
    143 O21         4.5760   -1.5370    0.3600 o         1 MOL     -0.452077
    144 C45         7.7260   -2.8930    0.6310 c3        1 MOL     -0.428630
    145 C46         9.0840   -3.2370   -0.0210 c3        1 MOL      0.116135
    146 C47        10.2460   -3.0410    0.9430 c3        1 MOL     -0.013694
    147 C48        11.4740   -3.6140    0.3250 c3        1 MOL      0.091459
    148 N13        12.7620   -3.3170    1.0290 n4        1 MOL     -0.135613
    149 H67         5.8420   -2.9950   -2.2370 hn        1 MOL      0.333220
    150 H68         6.3100   -4.1480   -0.3560 h1        1 MOL      0.008207
    151 H69         7.7470   -3.3180    1.6280 hc        1 MOL      0.130150
    152 H70         7.8030   -1.8110    0.7790 hc        1 MOL      0.130150
    153 H71         9.2150   -2.5380   -0.8430 hc        1 MOL      0.024439
    154 H72         9.0970   -4.2550   -0.4230 hc        1 MOL      0.024439
    155 H73        10.0860   -3.5640    1.8900 hc        1 MOL      0.025867
    156 H74        10.3840   -1.9640    1.0730 hc        1 MOL      0.025867
    157 H75        11.5400   -3.2020   -0.6760 hx        1 MOL      0.028755
    158 H76        11.3030   -4.6970    0.2680 hx        1 MOL      0.028755
    159 H77        13.5390   -3.7420    0.5400 hn        1 MOL      0.194263
    160 H78        12.8520   -2.3270    1.2040 hn        1 MOL      0.194263
    161 H79        12.8690   -3.7700    1.9300 hn        1 MOL      0.194263
    162 N14         4.8660   -3.2230    1.7670 n         1 MOL     -0.631763
    163 C49         3.7670   -2.9080    2.7010 c3        1 MOL      0.470956
    164 C50         2.4090   -2.5480    1.9220 c         1 MOL      0.386163
    165 O22         1.9400   -1.4910    2.1630 o         1 MOL     -0.610792
    166 C51         3.6350   -4.0200    3.7380 c3        1 MOL     -0.149100
    167 C52         2.7750   -3.5860    4.9130 c3        1 MOL     -0.190940
    168 C53         2.3620   -4.8330    5.8080 c         1 MOL      0.655579
    169 O23         2.3250   -6.0040    5.3540 o         1 MOL     -0.614325
    170 O24         2.1370   -4.5060    7.0040 o         1 MOL     -0.614325
    171 H80         5.5250   -3.9480    2.0190 hn        1 MOL      0.268517
    172 H81         4.0200   -1.9980    3.2460 h1        1 MOL     -0.038304
    173 H82         4.6260   -4.3020    4.0830 hc        1 MOL      0.031063
    174 H83         3.2260   -4.9240    3.2710 hc        1 MOL      0.031063
    175 H84         1.8500   -3.0910    4.6090 hc        1 MOL      0.072734
    176 H85         3.3330   -2.9130    5.5620 hc        1 MOL      0.072734
    177 N15         1.8720   -3.2340    0.9320 n         1 MOL     -0.310469
    178 C54         2.2070   -4.5620    0.3640 c3        1 MOL      0.086864
    179 H86         1.3100   -5.1810    0.3340 h1        1 MOL      0.007736
    180 H87         2.5950   -4.4380   -0.6480 h1        1 MOL      0.007736
    181 H88         2.9610   -5.0460    0.9860 h1        1 MOL      0.007736
    182 H89         1.2270   -2.6890    0.3700 hn        1 MOL      0.344433
    183 Ca1         0.6140    0.9940    1.5630 Ca        1 MOL      1.821065
    184 O25         1.5610    0.7470    4.0280 oh        1 MOL     -0.910453
    185 H90         1.2290    1.6030    4.3030 ho        1 MOL      0.425967
    186 H91         2.1400    0.4720    4.7360 ho        1 MOL      0.425967
    187 O26         3.0780    0.6680    0.4000 oh        1 MOL     -0.910453
    188 H92         3.4640   -0.1930    0.5610 ho        1 MOL      0.425967
    189 H93         3.8200    1.2730    0.4140 ho        1 MOL      0.425967
    190 O27        -1.4700    0.5640    3.1710 oh        1 MOL     -0.910453
    191 H94        -2.3560    0.5030    2.8140 ho        1 MOL      0.425967
    192 H95        -1.5820    0.5900    4.1160 ho        1 MOL      0.425967
@<TRIPOS>BOND
     1    1    2 1   
     2    1    4 1   
     3    1    5 1   
     4    1    6 1   
     5    2    3 2   
     6    2    7 1   
     7    7    8 1   
     8    7   15 1   
     9    8    9 1   
    10    8   11 1   
    11    8   16 1   
    12    9   10 2   
    13    9   19 1   
    14   11   12 1   
    15   11   17 1   
    16   11   18 1   
    17   12   13 1   
    18   12   14 1   
    19   19   20 1   
    20   19   28 1   
    21   20   21 1   
    22   20   23 1   
    23   20   29 1   
    24   21   22 2   
    25   21   41 1   
    26   23   24 1   
    27   23   30 1   
    28   23   31 1   
    29   24   25 1   
    30   24   32 1   
    31   24   33 1   
    32   25   26 1   
    33   25   34 1   
    34   25   35 1   
    35   26   27 1   
    36   26   36 1   
    37   26   37 1   
    38   27   38 1   
    39   27   39 1   
    40   27   40 1   
    41   41   42 1   
    42   41   49 1   
    43   42   43 1   
    44   42   45 1   
    45   42   50 1   
    46   43   44 2   
    47   43   53 1   
    48   45   46 1   
    49   45   51 1   
    50   45   52 1   
    51   46   47 1   
    52   46   48 1   
    53   53   54 1   
    54   53   57 1   
    55   54   55 1   
    56   54   58 1   
    57   54   59 1   
    58   55   56 2   
    59   55   60 1   
    60   60   61 1   
    61   60   68 1   
    62   61   62 1   
    63   61   64 1   
    64   61   69 1   
    65   62   63 2   
    66   62   72 1   
    67   64   65 1   
    68   64   70 1   
    69   64   71 1   
    70   65   66 1   
    71   65   67 1   
    72   72   73 1   
    73   72   76 1   
    74   73   74 1   
    75   73   77 1   
    76   73   78 1   
    77   74   75 2   
    78   74   79 1   
    79   79   80 1   
    80   79   86 1   
    81   80   81 1   
    82   80   83 1   
    83   80   87 1   
    84   81   82 2   
    85   81   93 1   
    86   83   84 1   
    87   83   85 1   
    88   83   88 1   
    89   84   90 1   
    90   84   91 1   
    91   84   92 1   
    92   85   89 1   
    93   93   94 1   
    94   93  101 1   
    95   94   95 1   
    96   94   97 1   
    97   94  102 1   
    98   95   96 2   
    99   95  112 1   
   100   97   98 1   
   101   97   99 1   
   102   97  103 1   
   103   98  100 1   
   104   98  104 1   
   105   98  105 1   
   106   99  106 1   
   107   99  107 1   
   108   99  108 1   
   109  100  109 1   
   110  100  110 1   
   111  100  111 1   
   112  112  113 1   
   113  112  119 1   
   114  113  114 1   
   115  113  116 1   
   116  113  120 1   
   117  114  115 2   
   118  114  126 1   
   119  116  117 1   
   120  116  118 1   
   121  116  121 1   
   122  117  123 1   
   123  117  124 1   
   124  117  125 1   
   125  118  122 1   
   126  126  127 1   
   127  126  133 1   
   128  127  128 1   
   129  127  130 1   
   130  127  134 1   
   131  128  129 2   
   132  128  140 1   
   133  130  131 1   
   134  130  132 1   
   135  130  135 1   
   136  131  137 1   
   137  131  138 1   
   138  131  139 1   
   139  132  136 1   
   140  140  141 1   
   141  140  149 1   
   142  141  142 1   
   143  141  144 1   
   144  141  150 1   
   145  142  143 2   
   146  142  162 1   
   147  144  145 1   
   148  144  151 1   
   149  144  152 1   
   150  145  146 1   
   151  145  153 1   
   152  145  154 1   
   153  146  147 1   
   154  146  155 1   
   155  146  156 1   
   156  147  148 1   
   157  147  157 1   
   158  147  158 1   
   159  148  159 1   
   160  148  160 1   
   161  148  161 1   
   162  162  163 1   
   163  162  171 1   
   164  163  164 1   
   165  163  166 1   
   166  163  172 1   
   167  164  165 2   
   168  164  177 1   
   169  166  167 1   
   170  166  173 1   
   171  166  174 1   
   172  167  168 1   
   173  167  175 1   
   174  167  176 1   
   175  168  169 1   
   176  168  170 1   
   177  177  178 1   
   178  177  182 1   
   179  178  179 1   
   180  178  180 1   
   181  178  181 1   
   182  184  185 1   
   183  184  186 1   
   184  187  188 1   
   185  187  189 1   
   186  190  191 1   
   187  190  192 1   
@<TRIPOS>SUBSTRUCTURE
     1 MOL         1 TEMP              0 ****  ****    0 ROOT
