@<TRIPOS>MOLECULE
MOL
  189   185     1     0     0
SMALL
resp


@<TRIPOS>ATOM
      1 C1        -11.0500   -0.9700   -1.8310 c3        1 MOL     -0.540494
      2 C2         -9.5910   -0.9460   -1.2560 c         1 MOL      0.611157
      3 O1         -8.5680   -1.1900   -1.9580 o         1 MOL     -0.608440
      4 H1        -11.7300   -0.5070   -1.1140 hc        1 MOL      0.147902
      5 H2        -11.0800   -0.4160   -2.7680 hc        1 MOL      0.147902
      6 H3        -11.3550   -2.0010   -2.0070 hc        1 MOL      0.147902
      7 N1         -9.3490   -0.5090   -0.0340 n         1 MOL     -0.445076
      8 C3         -8.0510   -0.4660    0.7250 c3        1 MOL      0.150371
      9 C4         -7.5450   -1.8090    1.2710 c         1 MOL      0.161039
     10 O2         -8.0040   -2.3540    2.2980 o         1 MOL     -0.501526
     11 C5         -8.2260    0.6070    1.8790 c3        1 MOL     -0.166992
     12 C6         -8.6830    2.0310    1.3790 c         1 MOL      0.666030
     13 O3         -8.5570    2.3730    0.2190 o         1 MOL     -0.642115
     14 O4         -9.1140    2.8030    2.2700 o         1 MOL     -0.642115
     15 H4        -10.1920   -0.2410    0.4610 hn        1 MOL      0.290977
     16 H5         -7.3410   -0.0860   -0.0100 h1        1 MOL      0.058887
     17 H6         -7.2450    0.6450    2.3430 hc        1 MOL      0.063471
     18 H7         -8.9310    0.2330    2.6200 hc        1 MOL      0.063471
     19 N2         -6.5860   -2.3990    0.6670 n         1 MOL      0.116319
     20 C7         -5.9960   -3.7070    1.0120 c3        1 MOL      0.196952
     21 C8         -4.5910   -3.5730    1.7930 c         1 MOL      0.418346
     22 O5         -4.3090   -4.1450    2.7960 o         1 MOL     -0.534177
     23 C9         -5.9230   -4.6980   -0.1610 c3        1 MOL     -0.244234
     24 C10        -7.4120   -4.8020   -0.6590 c3        1 MOL      0.120369
     25 C11        -7.6530   -5.8200   -1.7780 c3        1 MOL     -0.025672
     26 C12        -9.1700   -5.8620   -2.1840 c3        1 MOL      0.106575
     27 N3         -9.3310   -6.6250   -3.3810 n4        1 MOL     -0.280774
     28 H8         -6.2710   -1.9640   -0.1850 hn        1 MOL      0.109067
     29 H9         -6.6190   -4.1680    1.7770 h1        1 MOL      0.012857
     30 H10        -5.6340   -5.6440    0.2830 hc        1 MOL      0.070711
     31 H11        -5.1720   -4.2780   -0.8260 hc        1 MOL      0.070711
     32 H12        -7.7260   -3.8100   -0.9710 hc        1 MOL     -0.018846
     33 H13        -8.0360   -4.9410    0.2180 hc        1 MOL     -0.018846
     34 H14        -7.2320   -6.7440   -1.3940 hc        1 MOL      0.009117
     35 H15        -7.1680   -5.4550   -2.6890 hc        1 MOL      0.009117
     36 H16        -9.4620   -4.8230   -2.3540 hx        1 MOL      0.048557
     37 H17        -9.7280   -6.2850   -1.3500 hx        1 MOL      0.048557
     38 H18       -10.2810   -6.9740   -3.4110 hn        1 MOL      0.305090
     39 H19        -9.2190   -6.0720   -4.2190 hn        1 MOL      0.305090
     40 H20        -8.7350   -7.4380   -3.4230 hn        1 MOL      0.305090
     41 N4         -3.6890   -2.7230    1.3520 n         1 MOL     -0.308494
     42 C13        -3.6150   -1.9400    0.1370 c3        1 MOL     -0.085124
     43 C14        -3.9390   -0.4570    0.3800 c         1 MOL      0.007187
     44 O6         -4.2880   -0.1240    1.5590 o         1 MOL     -0.315456
     45 C15        -2.2220   -2.2270   -0.4970 c3        1 MOL     -0.075418
     46 C16        -0.9910   -2.0110    0.3220 c         1 MOL      0.671567
     47 O7         -1.0760   -1.0280    1.0540 o         1 MOL     -0.656191
     48 O8         -0.0580   -2.8130    0.1580 o         1 MOL     -0.656191
     49 H21        -2.8680   -2.6240    1.9190 hn        1 MOL      0.319523
     50 H22        -4.3560   -2.2920   -0.5860 h1        1 MOL      0.106537
     51 H23        -2.1820   -1.4220   -1.2320 hc        1 MOL     -0.002061
     52 H24        -2.2050   -3.2450   -0.8750 hc        1 MOL     -0.002061
     53 N5         -3.8770    0.3600   -0.6700 n         1 MOL      0.043626
     54 C17        -4.0170    1.8000   -0.5340 c3        1 MOL     -0.454076
     55 C18        -2.9770    2.5470    0.2780 c         1 MOL      0.787011
     56 O9         -1.9130    1.9990    0.5440 o         1 MOL     -0.619164
     57 H25        -3.9040   -0.0290   -1.6000 hn        1 MOL      0.226071
     58 H26        -4.9940    2.0080   -0.0980 h1        1 MOL      0.152254
     59 H27        -4.0530    2.2230   -1.5290 h1        1 MOL      0.152254
     60 N6         -3.2190    3.7930    0.5790 n         1 MOL     -0.445166
     61 C19        -2.3380    4.7960    1.0880 c3        1 MOL     -0.014315
     62 C20        -2.7910    6.1730    0.6100 c         1 MOL      0.426429
     63 O10        -3.9510    6.3520    0.2400 o         1 MOL     -0.500514
     64 C21        -2.2970    4.7550    2.6260 c3        1 MOL     -0.118414
     65 C22        -2.0170    3.3350    3.1090 c         1 MOL      0.561793
     66 O11        -0.8730    2.8120    2.9720 o         1 MOL     -0.639788
     67 O12        -3.0180    2.7720    3.6010 o         1 MOL     -0.639788
     68 H28        -4.1770    4.0790    0.4190 hn        1 MOL      0.315323
     69 H29        -1.4010    4.6000    0.5670 h1        1 MOL      0.156148
     70 H30        -3.2620    5.0290    3.0440 hc        1 MOL      0.071515
     71 H31        -1.5330    5.4070    3.0340 hc        1 MOL      0.071515
     72 N7         -1.9770    7.2240    0.6900 n         1 MOL     -0.425275
     73 C23        -0.4940    7.1200    1.0030 c3        1 MOL     -0.054676
     74 C24         0.1850    6.3640   -0.1400 c         1 MOL      0.648792
     75 O13        -0.1560    6.3620   -1.3460 o         1 MOL     -0.524106
     76 H32        -2.3560    8.1530    0.6040 hn        1 MOL      0.329456
     77 H33        -0.3750    6.6990    2.0070 h1        1 MOL      0.058364
     78 H34        -0.0720    8.1270    1.0020 h1        1 MOL      0.058364
     79 N8          1.3150    5.6910    0.1790 n         1 MOL     -0.609188
     80 C25         2.0020    4.9200   -0.7910 c3        1 MOL     -0.014723
     81 C26         1.3870    3.5680   -1.0030 c         1 MOL      0.699810
     82 O14         0.8410    2.9650   -0.0890 o         1 MOL     -0.811214
     83 C27         3.4900    4.8930   -0.4720 c3        1 MOL      0.556957
     84 C28         4.1240    6.2520   -0.6740 c3        1 MOL     -0.296119
     85 O15         4.2050    4.0810   -1.2910 oh        1 MOL     -0.680687
     86 H35         1.7230    5.7590    1.0950 hn        1 MOL      0.288040
     87 H36         1.9720    5.4180   -1.7620 h1        1 MOL      0.091378
     88 H37         3.7280    4.6270    0.5540 h1        1 MOL     -0.067378
     89 H38         4.6580    3.4470   -0.7200 ho        1 MOL      0.408604
     90 H39         3.6780    6.7300   -1.5460 hc        1 MOL      0.071021
     91 H40         3.9700    6.9170    0.1660 hc        1 MOL      0.071021
     92 H41         5.2030    6.0820   -0.7510 hc        1 MOL      0.071021
     93 N9          1.3470    3.1460   -2.2600 n         1 MOL     -0.462778
     94 C29         0.8510    1.8210   -2.6950 c3        1 MOL      0.130289
     95 C30         1.4340    0.5510   -1.9510 c         1 MOL      0.284577
     96 O16         0.9540    0.1310   -0.9210 o         1 MOL     -0.262983
     97 C31        -0.7310    1.8580   -2.6460 c3        1 MOL      0.170444
     98 C32        -1.3290    2.9370   -3.5370 c3        1 MOL      0.110881
     99 C33        -1.2560    0.4920   -3.0690 c3        1 MOL     -0.599913
    100 C34        -1.1240    2.6800   -5.0320 c3        1 MOL     -0.166313
    101 H42         1.9270    3.6450   -2.9180 hn        1 MOL      0.272607
    102 H43         1.1210    1.8320   -3.7500 h1        1 MOL      0.043836
    103 H44        -1.1220    2.0670   -1.6500 hc        1 MOL      0.017697
    104 H45        -1.0310    3.9360   -3.2070 hc        1 MOL     -0.023995
    105 H46        -2.3820    2.7240   -3.3430 hc        1 MOL     -0.023995
    106 H47        -0.7520    0.2080   -3.9990 hc        1 MOL      0.150620
    107 H48        -1.0460   -0.2370   -2.2880 hc        1 MOL      0.150620
    108 H49        -2.3360    0.5350   -3.1880 hc        1 MOL      0.150620
    109 H50        -0.1200    2.8800   -5.4200 hc        1 MOL      0.037856
    110 H51        -1.4730    1.7120   -5.3780 hc        1 MOL      0.037856
    111 H52        -1.7240    3.4560   -5.5160 hc        1 MOL      0.037856
    112 N10         2.3090   -0.2350   -2.6140 n         1 MOL     -0.510839
    113 C35         2.4860   -1.6320   -2.3280 c3        1 MOL     -0.050487
    114 C36         3.9500   -2.1060   -2.5270 c         1 MOL      0.454065
    115 O17         4.2910   -3.2990   -2.3890 o         1 MOL     -0.567165
    116 C37         1.4630   -2.5090   -3.1520 c3        1 MOL      0.451826
    117 C38         1.3480   -2.2390   -4.6550 c3        1 MOL     -0.295926
    118 O18         0.1690   -2.4520   -2.6000 oh        1 MOL     -0.584142
    119 H53         2.7590    0.2020   -3.4070 hn        1 MOL      0.305491
    120 H54         2.2950   -1.8130   -1.2690 h1        1 MOL      0.152243
    121 H55         1.7380   -3.5450   -2.9860 h1        1 MOL     -0.016549
    122 H56         0.2380   -2.5120   -1.6470 ho        1 MOL      0.328773
    123 H57         0.9470   -3.1290   -5.1330 hc        1 MOL      0.069601
    124 H58         0.6680   -1.4220   -4.8840 hc        1 MOL      0.069601
    125 H59         2.3280   -2.0200   -5.0560 hc        1 MOL      0.069601
    126 N11         4.8260   -1.2260   -3.0510 n         1 MOL     -0.196597
    127 C39         6.2880   -1.4480   -3.3830 c3        1 MOL     -0.120860
    128 C40         7.1990   -1.4170   -2.1450 c         1 MOL      0.596979
    129 O19         7.8720   -0.4510   -1.8220 o         1 MOL     -0.544627
    130 C41         6.7570   -0.3980   -4.3680 c3        1 MOL      0.368470
    131 C42         6.0850   -0.6030   -5.7550 c3        1 MOL     -0.120296
    132 O20         6.4330    0.9290   -4.0110 oh        1 MOL     -0.614155
    133 H60         4.4940   -0.3330   -3.4020 hn        1 MOL      0.195045
    134 H61         6.3930   -2.4740   -3.7310 h1        1 MOL      0.088662
    135 H62         7.8410   -0.5040   -4.4880 h1        1 MOL     -0.003859
    136 H63         6.8460    1.1390   -3.1710 ho        1 MOL      0.388314
    137 H64         6.7000   -1.3960   -6.1640 hc        1 MOL      0.024259
    138 H65         5.1060   -1.0740   -5.6750 hc        1 MOL      0.024259
    139 H66         6.0670    0.2640   -6.4200 hc        1 MOL      0.024259
    140 N12         6.9900   -2.4960   -1.4130 n         1 MOL     -0.744413
    141 C43         6.9750   -2.6010    0.0690 c3        1 MOL      0.335517
    142 C44         5.8700   -1.7770    0.7280 c         1 MOL      0.636550
    143 O21         5.3760   -0.8240    0.1340 o         1 MOL     -0.514075
    144 C45         8.3980   -2.2030    0.6760 c3        1 MOL     -0.319780
    145 C46         9.6070   -2.7690   -0.1430 c3        1 MOL     -0.027428
    146 C47        10.9430   -2.3650    0.4980 c3        1 MOL      0.076698
    147 C48        11.1830   -0.8940    0.3100 c3        1 MOL      0.075921
    148 N13        12.5720   -0.4370    0.5300 n4        1 MOL     -0.310807
    149 H67         6.3640   -3.1650   -1.8240 hn        1 MOL      0.379714
    150 H68         6.8280   -3.6460    0.3590 h1        1 MOL      0.029319
    151 H69         8.3940   -2.6230    1.6850 hc        1 MOL      0.101999
    152 H70         8.3940   -1.1130    0.6800 hc        1 MOL      0.101999
    153 H71         9.5900   -2.3870   -1.1630 hc        1 MOL      0.045547
    154 H72         9.6270   -3.8620   -0.0950 hc        1 MOL      0.045547
    155 H73        11.6870   -2.9430   -0.0560 hc        1 MOL     -0.000466
    156 H74        11.0470   -2.5560    1.5630 hc        1 MOL     -0.000466
    157 H75        10.4230   -0.5070    0.9910 hx        1 MOL      0.063459
    158 H76        10.9410   -0.6320   -0.7220 hx        1 MOL      0.063459
    159 H77        12.6390    0.5540    0.3330 hn        1 MOL      0.238282
    160 H78        12.8850   -0.5840    1.4730 hn        1 MOL      0.238282
    161 H79        13.1390   -0.9270   -0.1550 hn        1 MOL      0.238282
    162 N14         5.4090   -2.3110    1.9140 n         1 MOL     -0.887303
    163 C49         4.4020   -1.6600    2.7180 c3        1 MOL      0.670095
    164 C50         3.0020   -1.7060    2.0560 c         1 MOL      0.180582
    165 O22         2.4230   -0.6480    1.7750 o         1 MOL     -0.549748
    166 C51         4.3350   -2.3280    4.1030 c3        1 MOL     -0.590804
    167 C52         5.5350   -1.8680    4.8630 c3        1 MOL     -0.184966
    168 C53         5.7450   -2.5400    6.2790 c         1 MOL      0.735286
    169 O23         5.9960   -3.7980    6.3160 o         1 MOL     -0.680516
    170 O24         5.8730   -1.8680    7.3040 o         1 MOL     -0.680516
    171 H80         5.8970   -3.0720    2.3520 hn        1 MOL      0.414211
    172 H81         4.5950   -0.5910    2.8280 h1        1 MOL     -0.017355
    173 H82         4.2590   -3.4230    4.0600 hc        1 MOL      0.192343
    174 H83         3.4870   -1.8630    4.5890 hc        1 MOL      0.192343
    175 H84         5.5210   -0.8110    5.1310 hc        1 MOL      0.040887
    176 H85         6.4530   -2.0330    4.3010 hc        1 MOL      0.040887
    177 N15         2.4430   -2.7840    1.5700 n         1 MOL     -0.074735
    178 C54         2.7510   -4.2170    1.6170 c3        1 MOL     -0.123288
    179 H86         3.7320   -4.3920    1.1760 h1        1 MOL      0.062739
    180 H87         2.7530   -4.5550    2.6530 h1        1 MOL      0.062739
    181 H88         1.9970   -4.7700    1.0550 h1        1 MOL      0.062739
    182 H89         1.5660   -2.5780    1.1250 hn        1 MOL      0.204743
    183 Ca1         0.3060    0.9960    1.5500 Ca        1 MOL      1.722316
    184 O25         2.5350    2.2490    2.2120 oh        1 MOL     -0.900696
    185 H90         3.4220    2.0320    2.4910 ho        1 MOL      0.428881
    186 H91         2.4500    3.1890    2.3580 ho        1 MOL      0.428881
    187 O26         0.3430   -0.2510    4.0840 oh        1 MOL     -0.900696
    188 H92        -0.4060    0.1220    4.5690 ho        1 MOL      0.428881
    189 H93         0.3580   -1.1670    4.3370 ho        1 MOL      0.428881
@<TRIPOS>BOND
     1    1    2 1   
     2    1    4 1   
     3    1    5 1   
     4    1    6 1   
     5    2    3 2   
     6    2    7 1   
     7    7    8 1   
     8    7   15 1   
     9    8    9 1   
    10    8   11 1   
    11    8   16 1   
    12    9   10 2   
    13    9   19 1   
    14   11   12 1   
    15   11   17 1   
    16   11   18 1   
    17   12   13 1   
    18   12   14 1   
    19   19   20 1   
    20   19   28 1   
    21   20   21 1   
    22   20   23 1   
    23   20   29 1   
    24   21   22 2   
    25   21   41 1   
    26   23   24 1   
    27   23   30 1   
    28   23   31 1   
    29   24   25 1   
    30   24   32 1   
    31   24   33 1   
    32   25   26 1   
    33   25   34 1   
    34   25   35 1   
    35   26   27 1   
    36   26   36 1   
    37   26   37 1   
    38   27   38 1   
    39   27   39 1   
    40   27   40 1   
    41   41   42 1   
    42   41   49 1   
    43   42   43 1   
    44   42   45 1   
    45   42   50 1   
    46   43   44 2   
    47   43   53 1   
    48   45   46 1   
    49   45   51 1   
    50   45   52 1   
    51   46   47 1   
    52   46   48 1   
    53   53   54 1   
    54   53   57 1   
    55   54   55 1   
    56   54   58 1   
    57   54   59 1   
    58   55   56 2   
    59   55   60 1   
    60   60   61 1   
    61   60   68 1   
    62   61   62 1   
    63   61   64 1   
    64   61   69 1   
    65   62   63 2   
    66   62   72 1   
    67   64   65 1   
    68   64   70 1   
    69   64   71 1   
    70   65   66 1   
    71   65   67 1   
    72   72   73 1   
    73   72   76 1   
    74   73   74 1   
    75   73   77 1   
    76   73   78 1   
    77   74   75 2   
    78   74   79 1   
    79   79   80 1   
    80   79   86 1   
    81   80   81 1   
    82   80   83 1   
    83   80   87 1   
    84   81   82 2   
    85   81   93 1   
    86   83   84 1   
    87   83   85 1   
    88   83   88 1   
    89   84   90 1   
    90   84   91 1   
    91   84   92 1   
    92   85   89 1   
    93   93   94 1   
    94   93  101 1   
    95   94   95 1   
    96   94   97 1   
    97   94  102 1   
    98   95   96 2   
    99   95  112 1   
   100   97   98 1   
   101   97   99 1   
   102   97  103 1   
   103   98  100 1   
   104   98  104 1   
   105   98  105 1   
   106   99  106 1   
   107   99  107 1   
   108   99  108 1   
   109  100  109 1   
   110  100  110 1   
   111  100  111 1   
   112  112  113 1   
   113  112  119 1   
   114  113  114 1   
   115  113  116 1   
   116  113  120 1   
   117  114  115 2   
   118  114  126 1   
   119  116  117 1   
   120  116  118 1   
   121  116  121 1   
   122  117  123 1   
   123  117  124 1   
   124  117  125 1   
   125  118  122 1   
   126  126  127 1   
   127  126  133 1   
   128  127  128 1   
   129  127  130 1   
   130  127  134 1   
   131  128  129 2   
   132  128  140 1   
   133  130  131 1   
   134  130  132 1   
   135  130  135 1   
   136  131  137 1   
   137  131  138 1   
   138  131  139 1   
   139  132  136 1   
   140  140  141 1   
   141  140  149 1   
   142  141  142 1   
   143  141  144 1   
   144  141  150 1   
   145  142  143 2   
   146  142  162 1   
   147  144  145 1   
   148  144  151 1   
   149  144  152 1   
   150  145  146 1   
   151  145  153 1   
   152  145  154 1   
   153  146  147 1   
   154  146  155 1   
   155  146  156 1   
   156  147  148 1   
   157  147  157 1   
   158  147  158 1   
   159  148  159 1   
   160  148  160 1   
   161  148  161 1   
   162  162  163 1   
   163  162  171 1   
   164  163  164 1   
   165  163  166 1   
   166  163  172 1   
   167  164  165 2   
   168  164  177 1   
   169  166  167 1   
   170  166  173 1   
   171  166  174 1   
   172  167  168 1   
   173  167  175 1   
   174  167  176 1   
   175  168  169 1   
   176  168  170 1   
   177  177  178 1   
   178  177  182 1   
   179  178  179 1   
   180  178  180 1   
   181  178  181 1   
   182  184  185 1   
   183  184  186 1   
   184  187  188 1   
   185  187  189 1   
@<TRIPOS>SUBSTRUCTURE
     1 MOL         1 TEMP              0 ****  ****    0 ROOT
