@<TRIPOS>MOLECULE
MOL
  192   187     1     0     0
SMALL
resp


@<TRIPOS>ATOM
      1 C1         -5.0130   -2.1090   -4.5800 c3        1 MOL     -0.389857
      2 C2         -5.2250   -1.3880   -3.2180 c         1 MOL      0.696985
      3 O1         -4.3110   -0.7810   -2.6510 o         1 MOL     -0.571702
      4 H1         -5.8700   -1.9210   -5.2280 hc        1 MOL      0.103403
      5 H2         -4.1090   -1.7300   -5.0550 hc        1 MOL      0.103403
      6 H3         -4.9150   -3.1820   -4.4130 hc        1 MOL      0.103403
      7 N1         -6.4470   -1.3120   -2.7570 n         1 MOL     -0.629626
      8 C3         -6.7680   -0.5050   -1.5880 c3        1 MOL      0.324240
      9 C4         -6.4430   -1.1330   -0.2290 c         1 MOL     -0.023988
     10 O2         -6.4430   -0.3830    0.7720 o         1 MOL     -0.414068
     11 C5         -8.2320   -0.1420   -1.6080 c3        1 MOL     -0.393742
     12 C6         -9.1530   -1.3680   -1.7350 c         1 MOL      0.840326
     13 O3         -9.1420   -2.0990   -2.7570 o         1 MOL     -0.731408
     14 O4        -10.1300   -1.4870   -0.9360 o         1 MOL     -0.731408
     15 H4         -7.2110   -1.7810   -3.2150 hn        1 MOL      0.338633
     16 H5         -6.2580    0.4510   -1.6860 h1        1 MOL      0.092079
     17 H6         -8.3040    0.5190   -2.4740 hc        1 MOL      0.110989
     18 H7         -8.3870    0.4530   -0.7180 hc        1 MOL      0.110989
     19 N2         -6.1220   -2.4330   -0.1600 n         1 MOL     -0.267565
     20 C7         -5.9070   -3.1060    1.2180 c3        1 MOL      0.176909
     21 C8         -4.5370   -3.7980    1.4030 c         1 MOL      0.525829
     22 O5         -4.4760   -4.8480    2.0880 o         1 MOL     -0.574091
     23 C9         -7.1510   -3.9690    1.6720 c3        1 MOL     -0.305116
     24 C10        -8.4690   -3.2310    1.4520 c3        1 MOL      0.377694
     25 C11        -9.5640   -4.2000    2.0330 c3        1 MOL     -0.223329
     26 C12       -10.9430   -3.4970    1.8360 c3        1 MOL     -0.011533
     27 N3        -11.4240   -3.6300    0.4290 n4        1 MOL     -0.406356
     28 H8         -6.2360   -3.0270   -0.9740 hn        1 MOL      0.262629
     29 H9         -5.8690   -2.3140    1.9650 h1        1 MOL      0.093163
     30 H10        -7.0050   -4.2050    2.7240 hc        1 MOL      0.063253
     31 H11        -7.1750   -4.9110    1.1130 hc        1 MOL      0.063253
     32 H12        -8.6310   -3.1390    0.3820 hc        1 MOL     -0.022536
     33 H13        -8.5570   -2.3110    2.0350 hc        1 MOL     -0.022536
     34 H14        -9.4550   -4.3390    3.1070 hc        1 MOL      0.077724
     35 H15        -9.5610   -5.1480    1.5100 hc        1 MOL      0.077724
     36 H16       -10.9650   -2.4760    2.2140 hx        1 MOL      0.097458
     37 H17       -11.5900   -4.0560    2.5120 hx        1 MOL      0.097458
     38 H18       -12.3200   -3.1890    0.3240 hn        1 MOL      0.320437
     39 H19       -10.8640   -3.0770   -0.2110 hn        1 MOL      0.320437
     40 H20       -11.5000   -4.5530    0.0150 hn        1 MOL      0.320437
     41 N4         -3.3870   -3.3750    0.9500 n         1 MOL     -0.642809
     42 C13        -3.1070   -2.0590    0.2550 c3        1 MOL      0.443467
     43 C14        -3.2850   -0.7980    1.1240 c         1 MOL      0.362367
     44 O6         -2.9400   -0.9030    2.3310 o         1 MOL     -0.475734
     45 C15        -1.6980   -2.0280   -0.3440 c3        1 MOL     -0.412752
     46 C16        -0.5660   -2.2600    0.6880 c         1 MOL      0.663468
     47 O7          0.1770   -1.2410    0.9150 o         1 MOL     -0.618715
     48 O8         -0.5290   -3.3150    1.3710 o         1 MOL     -0.618715
     49 H21        -2.6300   -3.8620    1.4090 hn        1 MOL      0.383236
     50 H22        -3.7660   -1.9530   -0.6040 h1        1 MOL     -0.043589
     51 H23        -1.6080   -1.0710   -0.8640 hc        1 MOL      0.071951
     52 H24        -1.6140   -2.7890   -1.1160 hc        1 MOL      0.071951
     53 N5         -3.5860    0.3470    0.4820 n         1 MOL     -0.145082
     54 C17        -3.8260    1.6310    1.1700 c3        1 MOL     -0.237785
     55 C18        -2.5620    2.3210    1.5910 c         1 MOL      0.625268
     56 O9         -1.4860    1.7590    1.5290 o         1 MOL     -0.614407
     57 H25        -3.4230    0.3430   -0.5200 hn        1 MOL      0.169617
     58 H26        -4.5540    1.4870    1.9740 h1        1 MOL      0.109464
     59 H27        -4.3250    2.2730    0.4390 h1        1 MOL      0.109464
     60 N6         -2.6500    3.6270    1.9100 n         1 MOL     -0.358964
     61 C19        -1.6000    4.5270    2.3170 c3        1 MOL      0.334136
     62 C20        -2.0860    6.0040    2.1170 c         1 MOL      0.356320
     63 O10        -3.2970    6.2960    2.1220 o         1 MOL     -0.528628
     64 C21        -1.2120    4.3240    3.8430 c3        1 MOL     -0.221331
     65 C22        -0.3280    3.0540    4.0940 c         1 MOL      0.657895
     66 O11         0.5200    2.7800    3.2480 o         1 MOL     -0.644015
     67 O12        -0.6080    2.3490    5.0400 o         1 MOL     -0.644015
     68 H28        -3.5860    3.9850    1.9540 hn        1 MOL      0.212021
     69 H29        -0.7240    4.3160    1.7070 h1        1 MOL     -0.103245
     70 H30        -2.1330    4.1100    4.3910 hc        1 MOL      0.042579
     71 H31        -0.6950    5.2130    4.1820 hc        1 MOL      0.042579
     72 N7         -1.2590    7.0250    1.9810 n         1 MOL     -0.358218
     73 C23         0.1410    7.0050    1.9090 c3        1 MOL     -0.027799
     74 C24         0.7060    6.5280    0.5810 c         1 MOL      0.645644
     75 O13         0.0620    6.7900   -0.3910 o         1 MOL     -0.545735
     76 H32        -1.6400    7.9550    1.9190 hn        1 MOL      0.317699
     77 H33         0.6230    6.2790    2.5750 h1        1 MOL      0.049140
     78 H34         0.5510    7.9750    2.1670 h1        1 MOL      0.049140
     79 N8          1.8280    5.8570    0.4780 n         1 MOL     -0.658005
     80 C25         2.2600    5.1440   -0.7530 c3        1 MOL      0.054083
     81 C26         1.3620    3.9500   -0.9390 c         1 MOL      0.829844
     82 O14         1.0060    3.2450   -0.0170 o         1 MOL     -0.610492
     83 C27         3.7350    4.8730   -0.6350 c3        1 MOL      0.326238
     84 C28         4.2210    4.1450   -1.9490 c3        1 MOL     -0.395291
     85 O15         4.0640    4.0420    0.3990 oh        1 MOL     -0.628049
     86 H35         2.4040    5.6900    1.2860 hn        1 MOL      0.339947
     87 H36         2.1470    5.7980   -1.6170 h1        1 MOL      0.054259
     88 H37         4.2510    5.8180   -0.5290 h1        1 MOL      0.015262
     89 H38         4.9330    4.3240    0.6960 ho        1 MOL      0.413235
     90 H39         5.3080    4.1840   -1.8470 hc        1 MOL      0.097247
     91 H40         3.9580    3.0980   -1.7610 hc        1 MOL      0.097247
     92 H41         3.8940    4.6520   -2.8630 hc        1 MOL      0.097247
     93 N9          0.8480    3.8060   -2.1910 n         1 MOL     -0.638160
     94 C29        -0.1450    2.8260   -2.6510 c3        1 MOL      0.098505
     95 C30         0.2900    1.3820   -2.2380 c         1 MOL      0.307185
     96 O16         0.2040    0.9690   -1.0730 o         1 MOL     -0.440655
     97 C31        -1.5490    3.1620   -2.0600 c3        1 MOL     -0.036763
     98 C32        -2.0830    4.5700   -2.4540 c3        1 MOL     -0.038865
     99 C33        -2.5330    2.1080   -2.5220 c3        1 MOL     -0.307780
    100 C34        -3.2240    5.1070   -1.5470 c3        1 MOL     -0.112500
    101 H42         1.0650    4.5430   -2.8470 hn        1 MOL      0.315040
    102 H43        -0.1370    2.9710   -3.7320 h1        1 MOL      0.076540
    103 H44        -1.4620    3.1360   -0.9710 hc        1 MOL      0.209104
    104 H45        -2.3820    4.6050   -3.5010 hc        1 MOL      0.018567
    105 H46        -1.2590    5.2960   -2.4490 hc        1 MOL      0.018567
    106 H47        -2.2040    1.1010   -2.2840 hc        1 MOL      0.091291
    107 H48        -3.4840    2.2870   -2.0200 hc        1 MOL      0.091291
    108 H49        -2.8050    2.1550   -3.5740 hc        1 MOL      0.091291
    109 H50        -3.6700    6.0600   -1.8330 hc        1 MOL      0.032808
    110 H51        -4.0460    4.4050   -1.3760 hc        1 MOL      0.032808
    111 H52        -2.7610    5.2540   -0.5710 hc        1 MOL      0.032808
    112 N10         0.6310    0.5330   -3.2650 n         1 MOL     -0.333065
    113 C35         0.8120   -0.9680   -3.0010 c3        1 MOL      0.038438
    114 C36         2.1900   -1.4270   -2.9930 c         1 MOL      0.528198
    115 O17         2.5220   -2.4840   -2.4300 o         1 MOL     -0.557501
    116 C37         0.0490   -1.8300   -4.0310 c3        1 MOL      0.309798
    117 C38         0.4930   -1.2950   -5.4190 c3        1 MOL     -0.292043
    118 O18        -1.3500   -1.5480   -3.8910 oh        1 MOL     -0.532085
    119 H53         0.7440    0.8260   -4.2240 hn        1 MOL      0.249312
    120 H54         0.3660   -1.2380   -2.0490 h1        1 MOL      0.025684
    121 H55         0.3860   -2.8630   -4.0080 h1        1 MOL      0.018379
    122 H56        -1.6230   -2.3200   -3.3920 ho        1 MOL      0.358483
    123 H57         0.0400   -0.3140   -5.5860 hc        1 MOL      0.074550
    124 H58         1.5810   -1.2390   -5.4840 hc        1 MOL      0.074550
    125 H59         0.1920   -1.9540   -6.2280 hc        1 MOL      0.074550
    126 N11         3.1140   -0.6820   -3.5530 n         1 MOL     -0.260201
    127 C39         4.5070   -1.1630   -3.7240 c3        1 MOL     -0.138280
    128 C40         5.2230   -1.1500   -2.3420 c         1 MOL      0.844283
    129 O19         5.7060   -0.1310   -1.9220 o         1 MOL     -0.535752
    130 C41         5.1750   -0.3790   -4.8580 c3        1 MOL      0.100536
    131 C42         4.6160   -0.5760   -6.3030 c3        1 MOL     -0.048354
    132 O20         5.1540    0.9880   -4.6770 oh        1 MOL     -0.587128
    133 H60         2.8070    0.0880   -4.1350 hn        1 MOL      0.228283
    134 H61         4.5420   -2.1880   -4.0990 h1        1 MOL      0.063785
    135 H62         6.2120   -0.7120   -4.8860 h1        1 MOL      0.049075
    136 H63         5.8470    1.3430   -5.2360 ho        1 MOL      0.415829
    137 H64         4.8340   -1.5630   -6.6940 hc        1 MOL      0.021118
    138 H65         3.5490   -0.5030   -6.4690 hc        1 MOL      0.021118
    139 H66         5.0760    0.0600   -7.0490 hc        1 MOL      0.021118
    140 N12         5.4290   -2.3630   -1.7640 n         1 MOL     -0.853467
    141 C43         6.0020   -2.4920   -0.4340 c3        1 MOL      0.457650
    142 C44         5.3340   -1.8380    0.7250 c         1 MOL      0.654916
    143 O21         4.8720   -0.7100    0.6500 o         1 MOL     -0.549821
    144 C45         7.4670   -2.1390   -0.4090 c3        1 MOL     -0.599398
    145 C46         8.4100   -2.7770   -1.3760 c3        1 MOL      0.148184
    146 C47         9.8900   -2.5410   -1.2740 c3        1 MOL      0.048438
    147 C48        10.8200   -3.3040   -2.3660 c3        1 MOL     -0.081480
    148 N13        11.1930   -4.6130   -1.9410 n4        1 MOL     -0.220817
    149 H67         5.1070   -3.1860   -2.2590 hn        1 MOL      0.371357
    150 H68         5.9930   -3.5540   -0.1880 h1        1 MOL     -0.006205
    151 H69         7.8830   -2.3770    0.5670 hc        1 MOL      0.154225
    152 H70         7.4190   -1.0760   -0.6410 hc        1 MOL      0.154225
    153 H71         8.2320   -2.3820   -2.3800 hc        1 MOL     -0.009353
    154 H72         8.3910   -3.8720   -1.4010 hc        1 MOL     -0.009353
    155 H73        10.2020   -2.7870   -0.2580 hc        1 MOL      0.032638
    156 H74        10.0880   -1.4800   -1.3980 hc        1 MOL      0.032638
    157 H75        11.7030   -2.6940   -2.5570 hx        1 MOL      0.097102
    158 H76        10.2540   -3.3950   -3.2900 hx        1 MOL      0.097102
    159 H77        12.0520   -4.8870   -2.4020 hn        1 MOL      0.234728
    160 H78        11.5090   -4.6210   -0.9890 hn        1 MOL      0.234728
    161 H79        10.4810   -5.2930   -2.1880 hn        1 MOL      0.234728
    162 N14         5.4720   -2.4150    1.9490 n         1 MOL     -0.675750
    163 C49         4.6410   -1.9570    3.0430 c3        1 MOL      0.283626
    164 C50         3.1970   -1.9320    2.5910 c         1 MOL      0.295856
    165 O22         2.6430   -0.8340    2.6970 o         1 MOL     -0.512471
    166 C51         4.9300   -2.6090    4.3910 c3        1 MOL     -0.097688
    167 C52         6.2950   -2.2700    4.9300 c3        1 MOL     -0.164778
    168 C53         6.4310   -3.0280    6.2510 c         1 MOL      0.673943
    169 O23         6.9060   -4.1780    6.2440 o         1 MOL     -0.627267
    170 O24         6.1000   -2.3930    7.2830 o         1 MOL     -0.627267
    171 H80         6.0570   -3.2130    2.1420 hn        1 MOL      0.351208
    172 H81         4.9430   -0.9170    3.1790 h1        1 MOL      0.041476
    173 H82         4.7820   -3.6930    4.4080 hc        1 MOL      0.078536
    174 H83         4.2290   -2.2010    5.1150 hc        1 MOL      0.078536
    175 H84         6.3560   -1.1820    5.0550 hc        1 MOL      0.014552
    176 H85         7.1000   -2.6060    4.2760 hc        1 MOL      0.014552
    177 N15         2.4870   -2.9940    2.1760 n         1 MOL     -0.254002
    178 C54         2.9830   -4.3460    1.8400 c3        1 MOL      0.014742
    179 H86         2.7290   -4.5790    0.8060 h1        1 MOL      0.016475
    180 H87         4.0670   -4.3780    1.9630 h1        1 MOL      0.016475
    181 H88         2.5210   -5.0780    2.5020 h1        1 MOL      0.016475
    182 H89         1.5700   -2.8530    1.7920 hn        1 MOL      0.285282
    183 Ca1         1.1190    1.0700    1.4810 Ca        1 MOL      1.742808
    184 O25         3.1880    0.9050   -0.3010 oh        1 MOL     -0.894546
    185 H90         3.7520    1.6230   -0.5740 ho        1 MOL      0.422193
    186 H91         3.7610    0.1370   -0.2990 ho        1 MOL      0.422193
    187 O26        -0.3880    0.0600    3.4900 oh        1 MOL     -0.894546
    188 H92        -0.7280    0.7410    4.0660 ho        1 MOL      0.422193
    189 H93        -1.1710   -0.3080    3.0790 ho        1 MOL      0.422193
    190 O27         3.6390    1.8830    2.3430 oh        1 MOL     -0.894546
    191 H94         4.2940    1.1950    2.3550 ho        1 MOL      0.422193
    192 H95         4.0440    2.5910    1.8410 ho        1 MOL      0.422193
@<TRIPOS>BOND
     1    1    2 1   
     2    1    4 1   
     3    1    5 1   
     4    1    6 1   
     5    2    3 2   
     6    2    7 1   
     7    7    8 1   
     8    7   15 1   
     9    8    9 1   
    10    8   11 1   
    11    8   16 1   
    12    9   10 2   
    13    9   19 1   
    14   11   12 1   
    15   11   17 1   
    16   11   18 1   
    17   12   13 1   
    18   12   14 1   
    19   19   20 1   
    20   19   28 1   
    21   20   21 1   
    22   20   23 1   
    23   20   29 1   
    24   21   22 2   
    25   21   41 1   
    26   23   24 1   
    27   23   30 1   
    28   23   31 1   
    29   24   25 1   
    30   24   32 1   
    31   24   33 1   
    32   25   26 1   
    33   25   34 1   
    34   25   35 1   
    35   26   27 1   
    36   26   36 1   
    37   26   37 1   
    38   27   38 1   
    39   27   39 1   
    40   27   40 1   
    41   41   42 1   
    42   41   49 1   
    43   42   43 1   
    44   42   45 1   
    45   42   50 1   
    46   43   44 2   
    47   43   53 1   
    48   45   46 1   
    49   45   51 1   
    50   45   52 1   
    51   46   47 1   
    52   46   48 1   
    53   53   54 1   
    54   53   57 1   
    55   54   55 1   
    56   54   58 1   
    57   54   59 1   
    58   55   56 2   
    59   55   60 1   
    60   60   61 1   
    61   60   68 1   
    62   61   62 1   
    63   61   64 1   
    64   61   69 1   
    65   62   63 2   
    66   62   72 1   
    67   64   65 1   
    68   64   70 1   
    69   64   71 1   
    70   65   66 1   
    71   65   67 1   
    72   72   73 1   
    73   72   76 1   
    74   73   74 1   
    75   73   77 1   
    76   73   78 1   
    77   74   75 2   
    78   74   79 1   
    79   79   80 1   
    80   79   86 1   
    81   80   81 1   
    82   80   83 1   
    83   80   87 1   
    84   81   82 2   
    85   81   93 1   
    86   83   84 1   
    87   83   85 1   
    88   83   88 1   
    89   84   90 1   
    90   84   91 1   
    91   84   92 1   
    92   85   89 1   
    93   93   94 1   
    94   93  101 1   
    95   94   95 1   
    96   94   97 1   
    97   94  102 1   
    98   95   96 2   
    99   95  112 1   
   100   97   98 1   
   101   97   99 1   
   102   97  103 1   
   103   98  100 1   
   104   98  104 1   
   105   98  105 1   
   106   99  106 1   
   107   99  107 1   
   108   99  108 1   
   109  100  109 1   
   110  100  110 1   
   111  100  111 1   
   112  112  113 1   
   113  112  119 1   
   114  113  114 1   
   115  113  116 1   
   116  113  120 1   
   117  114  115 2   
   118  114  126 1   
   119  116  117 1   
   120  116  118 1   
   121  116  121 1   
   122  117  123 1   
   123  117  124 1   
   124  117  125 1   
   125  118  122 1   
   126  126  127 1   
   127  126  133 1   
   128  127  128 1   
   129  127  130 1   
   130  127  134 1   
   131  128  129 2   
   132  128  140 1   
   133  130  131 1   
   134  130  132 1   
   135  130  135 1   
   136  131  137 1   
   137  131  138 1   
   138  131  139 1   
   139  132  136 1   
   140  140  141 1   
   141  140  149 1   
   142  141  142 1   
   143  141  144 1   
   144  141  150 1   
   145  142  143 2   
   146  142  162 1   
   147  144  145 1   
   148  144  151 1   
   149  144  152 1   
   150  145  146 1   
   151  145  153 1   
   152  145  154 1   
   153  146  147 1   
   154  146  155 1   
   155  146  156 1   
   156  147  148 1   
   157  147  157 1   
   158  147  158 1   
   159  148  159 1   
   160  148  160 1   
   161  148  161 1   
   162  162  163 1   
   163  162  171 1   
   164  163  164 1   
   165  163  166 1   
   166  163  172 1   
   167  164  165 2   
   168  164  177 1   
   169  166  167 1   
   170  166  173 1   
   171  166  174 1   
   172  167  168 1   
   173  167  175 1   
   174  167  176 1   
   175  168  169 1   
   176  168  170 1   
   177  177  178 1   
   178  177  182 1   
   179  178  179 1   
   180  178  180 1   
   181  178  181 1   
   182  184  185 1   
   183  184  186 1   
   184  187  188 1   
   185  187  189 1   
   186  190  191 1   
   187  190  192 1   
@<TRIPOS>SUBSTRUCTURE
     1 MOL         1 TEMP              0 ****  ****    0 ROOT
