@<TRIPOS>MOLECULE
MOL
  185   180     1     0     0
SMALL
resp


@<TRIPOS>ATOM
      1 C1          4.4110    0.3350    3.8800 c3        1 MOL     -0.304507
      2 C2          5.2690    0.3330    2.6370 c         1 MOL      0.618354
      3 O1          4.7790    0.1550    1.5430 o         1 MOL     -0.516131
      4 H1          5.0490    0.2600    4.7600 hc        1 MOL      0.082270
      5 H2          3.8380    1.2620    3.9250 hc        1 MOL      0.082270
      6 H3          3.7290   -0.5140    3.8520 hc        1 MOL      0.082270
      7 N1          6.5850    0.6650    2.7730 n         1 MOL     -0.690184
      8 C3          7.5340    0.7840    1.5980 c3        1 MOL      0.224839
      9 C4          7.5110   -0.4410    0.6960 c         1 MOL      0.280945
     10 O2          7.4530   -0.3630   -0.5600 o         1 MOL     -0.419745
     11 C5          7.3740    2.1440    0.9220 c3        1 MOL     -0.104849
     12 C6          8.5360    2.3860   -0.0660 c         1 MOL      0.575433
     13 O3          8.3860    3.2020   -0.9760 o         1 MOL     -0.661548
     14 O4          9.5350    1.6770    0.0770 o         1 MOL     -0.661548
     15 H4          6.9630    0.8200    3.6980 hn        1 MOL      0.350605
     16 H5          8.5300    0.8260    2.0180 h1        1 MOL      0.008930
     17 H6          7.4350    2.9540    1.6410 hc        1 MOL      0.079108
     18 H7          6.4250    2.1250    0.3870 hc        1 MOL      0.079108
     19 N2          7.5390   -1.6510    1.3140 n         1 MOL     -0.498301
     20 C7          7.6160   -2.9180    0.4960 c3        1 MOL      0.141037
     21 C8          6.2510   -3.5180    0.1930 c         1 MOL      0.566507
     22 O5          6.0460   -4.7150   -0.0040 o         1 MOL     -0.577424
     23 C9          8.5890   -3.7960    1.1150 c3        1 MOL     -0.103441
     24 C10        10.0360   -3.2920    1.2580 c3        1 MOL      0.057951
     25 C11        10.4730   -2.3950    0.0800 c3        1 MOL      0.021636
     26 C12        11.9900   -2.1720    0.1640 c3        1 MOL     -0.130550
     27 N3         12.5690   -1.6680   -1.0620 n4        1 MOL     -0.101475
     28 H8          7.6630   -1.6650    2.3210 hn        1 MOL      0.326695
     29 H9          7.9490   -2.6750   -0.5150 h1        1 MOL      0.047693
     30 H10         8.8030   -4.6130    0.4280 hc        1 MOL      0.029486
     31 H11         8.2030   -4.2500    2.0190 hc        1 MOL      0.029486
     32 H12        10.7730   -4.0980    1.3020 hc        1 MOL     -0.004560
     33 H13        10.1290   -2.7280    2.1880 hc        1 MOL     -0.004560
     34 H14        10.0840   -1.3910    0.1790 hc        1 MOL      0.050754
     35 H15        10.2120   -2.9570   -0.8240 hc        1 MOL      0.050754
     36 H16        12.4370   -3.1510    0.3070 hx        1 MOL      0.099459
     37 H17        12.1880   -1.5030    1.0040 hx        1 MOL      0.099459
     38 H18        12.3740   -2.3270   -1.8010 hn        1 MOL      0.267624
     39 H19        12.1470   -0.8310   -1.4310 hn        1 MOL      0.267624
     40 H20        13.5750   -1.5470   -1.0380 hn        1 MOL      0.267624
     41 N4          5.2460   -2.6370   -0.0820 n         1 MOL     -0.448234
     42 C13         3.9130   -3.0440   -0.5840 c3        1 MOL     -0.029008
     43 C14         3.3710   -2.1190   -1.6870 c         1 MOL      0.576250
     44 O6          3.4670   -0.8740   -1.6990 o         1 MOL     -0.495088
     45 C15         2.9690   -3.1040    0.6500 c3        1 MOL     -0.139086
     46 C16         1.6060   -3.7840    0.4040 c         1 MOL      0.592919
     47 O7          0.8820   -3.9960    1.4130 o         1 MOL     -0.702419
     48 O8          1.2260   -4.2010   -0.7550 o         1 MOL     -0.702419
     49 H21         5.5240   -1.6740    0.0140 hn        1 MOL      0.274450
     50 H22         4.0200   -4.0460   -1.0030 h1        1 MOL      0.106500
     51 H23         2.8250   -2.1630    1.1840 hc        1 MOL      0.094133
     52 H24         3.3830   -3.7770    1.3990 hc        1 MOL      0.094133
     53 N5          2.8530   -2.6510   -2.7680 n         1 MOL     -0.365762
     54 C17         2.5400   -1.9800   -4.0430 c3        1 MOL     -0.063755
     55 C18         1.5100   -0.8600   -4.0200 c         1 MOL      0.441425
     56 O9          1.5770    0.0640   -4.8960 o         1 MOL     -0.533145
     57 H25         2.6120   -3.6250   -2.7950 hn        1 MOL      0.224073
     58 H26         2.2210   -2.7140   -4.7780 h1        1 MOL      0.090000
     59 H27         3.4570   -1.5730   -4.4810 h1        1 MOL      0.090000
     60 N6          0.7130   -0.7690   -2.9260 n         1 MOL     -0.318720
     61 C19        -0.3860    0.2820   -2.7040 c3        1 MOL      0.019168
     62 C20         0.0570    1.7290   -2.5820 c         1 MOL      0.344663
     63 O10        -0.8170    2.6550   -2.6530 o         1 MOL     -0.446889
     64 C21        -1.2630   -0.0790   -1.4560 c3        1 MOL     -0.624027
     65 C22        -1.8440   -1.5080   -1.4290 c         1 MOL      0.978250
     66 N7         -3.1720   -1.6560   -1.3750 n         1 MOL     -0.963326
     67 O11        -1.2110   -2.4850   -1.3240 o         1 MOL     -0.751339
     68 H28         0.9400   -1.4270   -2.1880 hn        1 MOL      0.269388
     69 H29        -1.0090    0.2300   -3.5950 h1        1 MOL      0.128529
     70 H30        -2.0920    0.6250   -1.4000 hc        1 MOL      0.187760
     71 H31        -0.7920    0.1320   -0.4920 hc        1 MOL      0.187760
     72 H32        -3.7360   -0.8160   -1.3870 hn        1 MOL      0.436706
     73 H33        -3.5150   -2.6050   -1.3160 hn        1 MOL      0.436706
     74 N8          1.3320    2.0510   -2.3600 n         1 MOL     -0.073443
     75 C23         1.7720    3.4400   -2.2380 c3        1 MOL     -0.159847
     76 C24         1.1190    4.1800   -1.0950 c         1 MOL      0.599994
     77 O12         0.7390    5.3220   -1.2360 o         1 MOL     -0.552891
     78 H34         2.0480    1.3500   -2.3290 hn        1 MOL      0.215497
     79 H35         1.5430    3.9250   -3.1800 h1        1 MOL      0.104330
     80 H36         2.8580    3.4980   -2.0900 h1        1 MOL      0.104330
     81 N9          0.9730    3.5020    0.0240 n         1 MOL     -0.324487
     82 C25         0.3470    4.1700    1.1630 c3        1 MOL      0.060115
     83 C26        -0.7050    3.2540    1.8280 c         1 MOL      0.465677
     84 O13        -0.4430    2.1110    2.1260 o         1 MOL     -0.521263
     85 C27         1.4370    4.4980    2.2080 c3        1 MOL     -0.148942
     86 C28         2.6220    5.1730    1.6150 ca        1 MOL      0.019287
     87 C29         3.7840    4.4230    1.3620 ca        1 MOL     -0.165219
     88 C30         2.6190    6.4960    1.2180 ca        1 MOL     -0.165219
     89 C31         4.8080    4.9290    0.5440 ca        1 MOL     -0.254865
     90 C32         3.7170    7.0650    0.5300 ca        1 MOL     -0.254865
     91 C33         4.7870    6.2270    0.0750 ca        1 MOL      0.367105
     92 O14         5.8200    6.7580   -0.6700 oh        1 MOL     -0.481721
     93 H37         1.3910    2.5860    0.1290 hn        1 MOL      0.229988
     94 H38        -0.1060    5.1120    0.8660 h1        1 MOL      0.070548
     95 H39         1.8780    3.6410    2.7040 hc        1 MOL      0.073367
     96 H40         1.0610    5.1960    2.9640 hc        1 MOL      0.073367
     97 H41         3.9440    3.4180    1.7320 ha        1 MOL      0.139291
     98 H42         1.7820    7.1520    1.3780 ha        1 MOL      0.139291
     99 H43         5.6510    4.3680    0.1790 ha        1 MOL      0.121159
    100 H44         3.6510    8.1190    0.2900 ha        1 MOL      0.121159
    101 H45         5.5320    7.6280   -0.9520 ho        1 MOL      0.363850
    102 N10        -1.9360    3.6930    1.9140 n         1 MOL     -0.379176
    103 C34        -3.0320    2.7850    1.9590 c3        1 MOL     -0.050457
    104 C35        -3.5950    2.5750    0.5610 c         1 MOL      0.684998
    105 O15        -4.1990    1.5220    0.3130 o         1 MOL     -0.632825
    106 C36        -4.1110    3.2400    2.9930 c3        1 MOL      0.058459
    107 C37        -3.5120    3.3820    4.3760 c3        1 MOL      0.035317
    108 C38        -5.2200    2.2610    3.1640 c3        1 MOL     -0.200572
    109 C39        -2.6230    2.3130    4.9660 c3        1 MOL     -0.171309
    110 H46        -2.1480    4.6490    1.6820 hn        1 MOL      0.255407
    111 H47        -2.7360    1.7800    2.2510 h1        1 MOL      0.122585
    112 H48        -4.6230    4.1370    2.6680 hc        1 MOL     -0.003617
    113 H49        -4.3850    3.5060    5.0150 hc        1 MOL     -0.012893
    114 H50        -2.9270    4.3100    4.3840 hc        1 MOL     -0.012893
    115 H51        -4.8530    1.3150    3.5730 hc        1 MOL      0.058672
    116 H52        -5.9510    2.6760    3.8450 hc        1 MOL      0.058672
    117 H53        -5.7630    2.0360    2.2440 hc        1 MOL      0.058672
    118 H54        -2.5910    2.3740    6.0520 hc        1 MOL      0.057277
    119 H55        -2.9580    1.3220    4.6740 hc        1 MOL      0.057277
    120 H56        -1.6070    2.3900    4.6020 hc        1 MOL      0.057277
    121 N11        -3.4250    3.4800   -0.3130 n         1 MOL     -0.430247
    122 C40        -4.0220    3.4430   -1.6570 c3        1 MOL     -0.176351
    123 C41        -5.5380    3.1820   -1.7760 c         1 MOL      0.264533
    124 O16        -5.9920    2.6160   -2.7970 o         1 MOL     -0.438194
    125 C42        -3.6500    4.7060   -2.4600 c3        1 MOL      0.252144
    126 O17        -2.2540    5.0230   -2.4230 oh        1 MOL     -0.562649
    127 H57        -2.8850    4.3000   -0.0880 hn        1 MOL      0.256666
    128 H58        -3.5850    2.5850   -2.1780 h1        1 MOL      0.135610
    129 H59        -4.1670    5.6220   -2.1960 h1        1 MOL      0.045578
    130 H60        -3.9600    4.4920   -3.4850 h1        1 MOL      0.045578
    131 H61        -1.7210    4.2340   -2.2880 ho        1 MOL      0.316175
    132 N12        -6.3150    3.5110   -0.7550 n         1 MOL     -0.225391
    133 C43        -7.7300    3.4520   -0.6870 c3        1 MOL      0.186251
    134 C44        -8.3420    2.0500   -1.0560 c         1 MOL      0.574841
    135 O18        -9.4810    1.9190   -1.4640 o         1 MOL     -0.549807
    136 C45        -8.3170    4.6360   -1.3190 c3        1 MOL     -0.489768
    137 H62        -5.7740    3.8870    0.0080 hn        1 MOL      0.231263
    138 H63        -7.9280    3.5310    0.3760 h1        1 MOL      0.042878
    139 H64        -8.1090    5.5470   -0.7740 hc        1 MOL      0.138189
    140 H65        -7.9530    4.6510   -2.3480 hc        1 MOL      0.138189
    141 H66        -9.3720    4.4790   -1.5470 hc        1 MOL      0.138189
    142 N13        -7.5780    1.0030   -0.8680 n         1 MOL     -0.779927
    143 C46        -7.8000   -0.3790   -1.2840 c3        1 MOL      0.794273
    144 C47        -7.5500   -1.3090   -0.1090 c         1 MOL      0.365651
    145 O19        -6.8470   -0.9260    0.8150 o         1 MOL     -0.475947
    146 C48        -6.9910   -0.6440   -2.5240 c3        1 MOL     -0.436135
    147 H67        -6.6660    1.2300   -0.5180 hn        1 MOL      0.346695
    148 H68        -8.8340   -0.5900   -1.5860 h1        1 MOL     -0.107376
    149 H69        -5.9800   -0.2790   -2.3370 hc        1 MOL      0.098543
    150 H70        -7.0150   -1.7150   -2.7070 hc        1 MOL      0.098543
    151 H71        -7.4060   -0.0640   -3.3540 hc        1 MOL      0.098543
    152 N14        -8.0210   -2.5820   -0.2000 n         1 MOL     -0.496422
    153 C49        -7.9720   -3.5930    0.8730 c3        1 MOL     -0.083568
    154 C50        -8.5830   -3.1760    2.2360 c         1 MOL      0.402426
    155 O20        -8.4640   -3.8520    3.2150 o         1 MOL     -0.484810
    156 C51        -6.5210   -4.1430    0.9930 c3        1 MOL      0.091617
    157 C52        -5.9540   -4.7860   -0.3100 c3        1 MOL      0.066453
    158 C53        -4.4110   -4.8850   -0.2050 c         1 MOL      0.532942
    159 O21        -3.6930   -4.3750   -1.0620 o         1 MOL     -0.672726
    160 O22        -3.8870   -5.4790    0.7370 o         1 MOL     -0.672726
    161 H72        -8.5610   -2.8040   -1.0230 hn        1 MOL      0.284627
    162 H73        -8.5960   -4.4120    0.5110 h1        1 MOL      0.102982
    163 H74        -6.5340   -4.9000    1.7700 hc        1 MOL      0.025578
    164 H75        -5.8640   -3.3020    1.2300 hc        1 MOL      0.025578
    165 H76        -6.1920   -4.2270   -1.2160 hc        1 MOL     -0.038285
    166 H77        -6.3650   -5.7910   -0.3550 hc        1 MOL     -0.038285
    167 N15        -9.3140   -2.0860    2.2240 n         1 MOL     -0.177273
    168 C54       -10.0180   -1.4520    3.3830 c3        1 MOL     -0.169327
    169 H78        -9.3980   -1.5370    4.2750 h1        1 MOL      0.091112
    170 H79       -10.1990   -0.3980    3.1670 h1        1 MOL      0.091112
    171 H80       -10.9690   -1.9570    3.5520 h1        1 MOL      0.091112
    172 H81        -9.4410   -1.5710    1.3620 hn        1 MOL      0.180191
    173 Ca1        -1.2940   -4.8480    0.0140 Ca        1 MOL      1.796013
    174 O23        -2.0250   -3.2240    1.8910 oh        1 MOL     -0.863433
    175 H82        -1.5390   -3.2110    2.7280 ho        1 MOL      0.425464
    176 H83        -2.3840   -2.3400    1.8250 ho        1 MOL      0.425464
    177 O24        -1.0190   -6.4320    2.1190 oh        1 MOL     -0.863433
    178 H84        -1.4900   -7.2620    2.2310 ho        1 MOL      0.425464
    179 H85        -0.2740   -6.5070    2.7120 ho        1 MOL      0.425464
    180 O25        -1.3110   -5.2150   -2.7510 oh        1 MOL     -0.863433
    181 H86        -0.5990   -5.7480   -3.1060 ho        1 MOL      0.425464
    182 H87        -1.5780   -4.6420   -3.4730 ho        1 MOL      0.425464
    183 O26        -0.2120   -7.4010   -0.6970 oh        1 MOL     -0.863433
    184 H88        -0.5110   -8.3110   -0.7560 ho        1 MOL      0.425464
    185 H89         0.6480   -7.4020   -1.1010 ho        1 MOL      0.425464
@<TRIPOS>BOND
     1    1    2 1   
     2    1    4 1   
     3    1    5 1   
     4    1    6 1   
     5    2    3 2   
     6    2    7 1   
     7    7    8 1   
     8    7   15 1   
     9    8    9 1   
    10    8   11 1   
    11    8   16 1   
    12    9   10 2   
    13    9   19 1   
    14   11   12 1   
    15   11   17 1   
    16   11   18 1   
    17   12   13 1   
    18   12   14 1   
    19   19   20 1   
    20   19   28 1   
    21   20   21 1   
    22   20   23 1   
    23   20   29 1   
    24   21   22 2   
    25   21   41 1   
    26   23   24 1   
    27   23   30 1   
    28   23   31 1   
    29   24   25 1   
    30   24   32 1   
    31   24   33 1   
    32   25   26 1   
    33   25   34 1   
    34   25   35 1   
    35   26   27 1   
    36   26   36 1   
    37   26   37 1   
    38   27   38 1   
    39   27   39 1   
    40   27   40 1   
    41   41   42 1   
    42   41   49 1   
    43   42   43 1   
    44   42   45 1   
    45   42   50 1   
    46   43   44 2   
    47   43   53 1   
    48   45   46 1   
    49   45   51 1   
    50   45   52 1   
    51   46   47 1   
    52   46   48 1   
    53   53   54 1   
    54   53   57 1   
    55   54   55 1   
    56   54   58 1   
    57   54   59 1   
    58   55   56 2   
    59   55   60 1   
    60   60   61 1   
    61   60   68 1   
    62   61   62 1   
    63   61   64 1   
    64   61   69 1   
    65   62   63 2   
    66   62   74 1   
    67   64   65 1   
    68   64   70 1   
    69   64   71 1   
    70   65   66 1   
    71   65   67 2   
    72   66   72 1   
    73   66   73 1   
    74   74   75 1   
    75   74   78 1   
    76   75   76 1   
    77   75   79 1   
    78   75   80 1   
    79   76   77 2   
    80   76   81 1   
    81   81   82 1   
    82   81   93 1   
    83   82   83 1   
    84   82   85 1   
    85   82   94 1   
    86   83   84 2   
    87   83  102 1   
    88   85   86 1   
    89   85   95 1   
    90   85   96 1   
    91   86   87 ar  
    92   86   88 ar  
    93   87   89 ar  
    94   87   97 1   
    95   88   90 ar  
    96   88   98 1   
    97   89   91 ar  
    98   89   99 1   
    99   90   91 ar  
   100   90  100 1   
   101   91   92 1   
   102   92  101 1   
   103  102  103 1   
   104  102  110 1   
   105  103  104 1   
   106  103  106 1   
   107  103  111 1   
   108  104  105 2   
   109  104  121 1   
   110  106  107 1   
   111  106  108 1   
   112  106  112 1   
   113  107  109 1   
   114  107  113 1   
   115  107  114 1   
   116  108  115 1   
   117  108  116 1   
   118  108  117 1   
   119  109  118 1   
   120  109  119 1   
   121  109  120 1   
   122  121  122 1   
   123  121  127 1   
   124  122  123 1   
   125  122  125 1   
   126  122  128 1   
   127  123  124 2   
   128  123  132 1   
   129  125  126 1   
   130  125  129 1   
   131  125  130 1   
   132  126  131 1   
   133  132  133 1   
   134  132  137 1   
   135  133  134 1   
   136  133  136 1   
   137  133  138 1   
   138  134  135 2   
   139  134  142 1   
   140  136  139 1   
   141  136  140 1   
   142  136  141 1   
   143  142  143 1   
   144  142  147 1   
   145  143  144 1   
   146  143  146 1   
   147  143  148 1   
   148  144  145 2   
   149  144  152 1   
   150  146  149 1   
   151  146  150 1   
   152  146  151 1   
   153  152  153 1   
   154  152  161 1   
   155  153  154 1   
   156  153  156 1   
   157  153  162 1   
   158  154  155 2   
   159  154  167 1   
   160  156  157 1   
   161  156  163 1   
   162  156  164 1   
   163  157  158 1   
   164  157  165 1   
   165  157  166 1   
   166  158  159 1   
   167  158  160 1   
   168  167  168 1   
   169  167  172 1   
   170  168  169 1   
   171  168  170 1   
   172  168  171 1   
   173  174  175 1   
   174  174  176 1   
   175  177  178 1   
   176  177  179 1   
   177  180  181 1   
   178  180  182 1   
   179  183  184 1   
   180  183  185 1   
@<TRIPOS>SUBSTRUCTURE
     1 MOL         1 TEMP              0 ****  ****    0 ROOT
