@<TRIPOS>MOLECULE
MOL
  182   178     1     0     0
SMALL
resp


@<TRIPOS>ATOM
      1 C1          2.5270   -5.1640    6.1530 c3        1 MOL     -0.442371
      2 C2          2.2790   -4.7750    4.6800 c         1 MOL      0.729579
      3 O1          1.2230   -5.2240    4.1500 o         1 MOL     -0.613080
      4 H1          2.6130   -6.2480    6.2330 hc        1 MOL      0.120702
      5 H2          3.4500   -4.7010    6.5010 hc        1 MOL      0.120702
      6 H3          1.6940   -4.8200    6.7650 hc        1 MOL      0.120702
      7 N1          2.9990   -3.8440    4.1250 n         1 MOL     -0.505811
      8 C3          2.8470   -3.3500    2.7540 c3        1 MOL     -0.206108
      9 C4          3.1100   -4.4360    1.6670 c         1 MOL      0.524834
     10 O2          4.0620   -5.2230    1.7280 o         1 MOL     -0.497898
     11 C5          3.8830   -2.2190    2.6780 c3        1 MOL      0.056339
     12 C6          3.8280   -1.4620    1.3660 c         1 MOL      0.217387
     13 O3          4.5550   -0.4630    1.2870 o         1 MOL     -0.588398
     14 O4          3.1740   -1.8130    0.3630 o         1 MOL     -0.588398
     15 H4          3.8400   -3.5700    4.6130 hn        1 MOL      0.308249
     16 H5          1.8380   -3.0040    2.5280 h1        1 MOL      0.131428
     17 H6          4.8450   -2.7250    2.6690 hc        1 MOL      0.070179
     18 H7          3.8180   -1.4930    3.4920 hc        1 MOL      0.070179
     19 N2          2.3240   -4.4000    0.5970 n         1 MOL     -0.298313
     20 C7          2.2930   -5.4250   -0.5040 c3        1 MOL      0.007736
     21 C8          3.4790   -5.3990   -1.4100 c         1 MOL      0.490108
     22 O5          3.8610   -6.4200   -1.9710 o         1 MOL     -0.547427
     23 C9          1.0240   -5.3550   -1.3400 c3        1 MOL     -0.267742
     24 C10        -0.1980   -5.9690   -0.5900 c3        1 MOL      0.057422
     25 C11        -1.3450   -6.0430   -1.6000 c3        1 MOL     -0.003604
     26 C12        -2.5570   -6.6070   -0.7640 c3        1 MOL      0.113121
     27 N3         -3.6700   -6.9690   -1.7030 n4        1 MOL     -0.435145
     28 H8          1.6520   -3.6480    0.6240 hn        1 MOL      0.228790
     29 H9          2.3450   -6.3540    0.0700 h1        1 MOL      0.096103
     30 H10         1.2910   -6.0340   -2.1420 hc        1 MOL      0.101880
     31 H11         0.8330   -4.3850   -1.7950 hc        1 MOL      0.101880
     32 H12        -0.4900   -5.3190    0.2440 hc        1 MOL      0.025152
     33 H13        -0.0560   -6.9580   -0.1620 hc        1 MOL      0.025152
     34 H14        -1.1360   -6.7200   -2.4240 hc        1 MOL      0.022287
     35 H15        -1.6370   -5.0650   -1.9750 hc        1 MOL      0.022287
     36 H16        -2.9550   -5.7800   -0.1700 hx        1 MOL      0.056523
     37 H17        -2.2160   -7.4630   -0.1760 hx        1 MOL      0.056523
     38 H18        -4.5280   -7.0990   -1.1780 hn        1 MOL      0.335816
     39 H19        -3.8610   -6.1690   -2.2890 hn        1 MOL      0.335816
     40 H20        -3.4020   -7.7940   -2.2100 hn        1 MOL      0.335816
     41 N4          4.0140   -4.2090   -1.5480 n         1 MOL     -0.244154
     42 C13         5.1280   -3.8270   -2.4300 c3        1 MOL     -0.017827
     43 C14         6.3080   -3.1320   -1.6430 c         1 MOL      0.409649
     44 O6          7.3790   -3.0140   -2.1990 o         1 MOL     -0.511486
     45 C15         4.6180   -2.9530   -3.6510 c3        1 MOL     -0.067222
     46 C16         4.3850   -1.5280   -3.2750 c         1 MOL      0.660632
     47 O7          4.4390   -0.6600   -4.1920 o         1 MOL     -0.732643
     48 O8          4.0070   -1.1700   -2.1740 o         1 MOL     -0.732643
     49 H21         3.6760   -3.4620   -0.9670 hn        1 MOL      0.178881
     50 H22         5.6060   -4.6540   -2.9570 h1        1 MOL      0.104974
     51 H23         3.6970   -3.3790   -4.0370 hc        1 MOL      0.047813
     52 H24         5.2690   -3.0780   -4.5160 hc        1 MOL      0.047813
     53 N5          6.0830   -2.7160   -0.3740 n         1 MOL     -0.107225
     54 C17         7.0580   -1.9840    0.4820 c3        1 MOL     -0.251017
     55 C18         7.3510   -0.6170   -0.0510 c         1 MOL      0.581735
     56 O9          8.4130   -0.0610    0.3240 o         1 MOL     -0.581316
     57 H25         5.1560   -2.8870   -0.0140 hn        1 MOL      0.090788
     58 H26         8.0530   -2.4400    0.4350 h1        1 MOL      0.140236
     59 H27         6.7480   -1.9260    1.5250 h1        1 MOL      0.140236
     60 N6          6.5080    0.0420   -0.8660 n         1 MOL     -0.311976
     61 C19         6.7630    1.3460   -1.5020 c3        1 MOL      0.011233
     62 C20         5.6180    2.3350   -1.0710 c         1 MOL      0.596034
     63 O10         4.4260    1.9840   -0.8970 o         1 MOL     -0.553028
     64 C21         7.0430    1.1430   -3.0340 c3        1 MOL     -0.188636
     65 C22         6.4570    2.2200   -3.9510 c         1 MOL      0.578662
     66 N7          5.6690    1.7710   -4.8810 n         1 MOL     -0.655405
     67 O11         6.7360    3.4360   -3.9330 o         1 MOL     -0.602915
     68 H28         5.6070   -0.3800   -1.0340 hn        1 MOL      0.305450
     69 H29         7.6940    1.7040   -1.0780 h1        1 MOL      0.068528
     70 H30         6.6990    0.1380   -3.2910 hc        1 MOL      0.102527
     71 H31         8.1230    1.1850   -3.1970 hc        1 MOL      0.102527
     72 H32         5.4260    0.8130   -5.0680 hn        1 MOL      0.319994
     73 H33         5.2330    2.4700   -5.4670 hn        1 MOL      0.319994
     74 N8          5.9440    3.6490   -0.9910 n         1 MOL     -0.527003
     75 C23         4.9070    4.6540   -0.9580 c3        1 MOL      0.237337
     76 C24         3.9880    4.7950    0.2500 c         1 MOL      0.446634
     77 O12         4.4420    4.8480    1.3870 o         1 MOL     -0.509555
     78 H34         6.9060    3.9480   -1.0890 hn        1 MOL      0.330203
     79 H35         4.1810    4.4650   -1.7460 h1        1 MOL      0.002361
     80 H36         5.2250    5.6680   -1.1970 h1        1 MOL      0.002361
     81 N9          2.7610    4.9550   -0.0790 n         1 MOL     -0.461419
     82 C25         1.7380    4.9000    0.9410 c3        1 MOL      0.269744
     83 C26         1.5800    3.4880    1.4000 c         1 MOL      0.617343
     84 O13         2.0880    2.6220    0.7180 o         1 MOL     -0.549679
     85 C27         0.4710    5.4840    0.3330 c3        1 MOL     -0.198492
     86 C28         0.3650    7.0050    0.3930 ca        1 MOL      0.046117
     87 C29         0.9180    7.7460   -0.5910 ca        1 MOL     -0.084854
     88 C30        -0.2320    7.5660    1.4670 ca        1 MOL     -0.084854
     89 C31         0.7950    9.1740   -0.4960 ca        1 MOL     -0.307189
     90 C32        -0.3390    8.9490    1.6620 ca        1 MOL     -0.307189
     91 C33         0.1960    9.7670    0.6580 ca        1 MOL      0.357638
     92 O14         0.3550   11.1150    0.8630 oh        1 MOL     -0.475618
     93 H37         2.5270    4.9700   -1.0580 hn        1 MOL      0.295360
     94 H38         2.0180    5.5240    1.7850 h1        1 MOL      0.015793
     95 H39        -0.4460    5.1350    0.8110 hc        1 MOL      0.054493
     96 H40         0.3960    5.1430   -0.7000 hc        1 MOL      0.054493
     97 H41         1.4570    7.2990   -1.4090 ha        1 MOL      0.096196
     98 H42        -0.5930    6.9540    2.2860 ha        1 MOL      0.096196
     99 H43         1.2160    9.8020   -1.2690 ha        1 MOL      0.173531
    100 H44        -0.6940    9.4500    2.5490 ha        1 MOL      0.173531
    101 H45         0.0660   11.3400    1.7480 ho        1 MOL      0.361820
    102 N10         0.7480    3.2610    2.4890 n         1 MOL     -0.841309
    103 C34         0.5020    1.9130    3.0490 c3        1 MOL      0.201438
    104 C35         0.0160    0.7680    2.0690 c         1 MOL      0.894361
    105 O15         0.8320    0.2780    1.3020 o         1 MOL     -0.663200
    106 C36         1.7730    1.5060    3.8910 c3        1 MOL      0.312333
    107 C37         1.5220    0.1460    4.6660 c3        1 MOL     -0.017392
    108 C38         2.2660    2.6250    4.8290 c3        1 MOL     -0.466018
    109 C39         0.5070    0.2110    5.7840 c3        1 MOL     -0.459524
    110 H46         0.2880    4.0550    2.9100 hn        1 MOL      0.387774
    111 H47        -0.3540    1.8800    3.7160 h1        1 MOL     -0.005653
    112 H48         2.5960    1.2390    3.2240 hc        1 MOL      0.010169
    113 H49         2.4600   -0.1650    5.1390 hc        1 MOL      0.043780
    114 H50         1.1170   -0.5730    3.9440 hc        1 MOL      0.043780
    115 H51         3.0450    2.1540    5.4170 hc        1 MOL      0.125136
    116 H52         2.8910    3.3970    4.3780 hc        1 MOL      0.125136
    117 H53         1.4110    2.9550    5.4330 hc        1 MOL      0.125136
    118 H54         0.7520   -0.6790    6.3630 hc        1 MOL      0.110601
    119 H55         0.6520    1.0620    6.4410 hc        1 MOL      0.110601
    120 H56        -0.4620   -0.0280    5.3510 hc        1 MOL      0.110601
    121 N11        -1.1920    0.2920    2.1980 n         1 MOL     -0.927199
    122 C40        -1.6730   -0.9150    1.3910 c3        1 MOL      0.511228
    123 C41        -3.0730   -0.8690    0.7810 c         1 MOL      0.503250
    124 O16        -3.3610   -1.6810   -0.1060 o         1 MOL     -0.534932
    125 C42        -1.4470   -2.1930    2.1820 c3        1 MOL     -0.025664
    126 O17        -1.4580   -3.3340    1.3540 oh        1 MOL     -0.573624
    127 H57        -1.7840    0.6460    2.9270 hn        1 MOL      0.366817
    128 H58        -0.9770   -0.9570    0.5420 h1        1 MOL     -0.026290
    129 H59        -2.3280   -2.1600    2.8360 h1        1 MOL      0.058056
    130 H60        -0.4850   -2.1650    2.6870 h1        1 MOL      0.058056
    131 H61        -1.3130   -4.1300    1.8790 ho        1 MOL      0.409893
    132 N12        -4.0070   -0.0050    1.2010 n         1 MOL     -0.627814
    133 C43        -5.3240    0.1350    0.6270 c3        1 MOL      0.135507
    134 C44        -5.2680    1.0640   -0.5620 c         1 MOL      0.648852
    135 O18        -4.4850    1.9690   -0.6120 o         1 MOL     -0.551942
    136 C45        -6.3780    0.4090    1.6700 c3        1 MOL     -0.179051
    137 H62        -3.8390    0.5910    2.0050 hn        1 MOL      0.323875
    138 H63        -5.5680   -0.8800    0.3120 h1        1 MOL      0.114429
    139 H64        -6.1820   -0.0190    2.6540 hc        1 MOL      0.058141
    140 H65        -6.2400    1.4740    1.8810 hc        1 MOL      0.058141
    141 H66        -7.3950    0.2510    1.3150 hc        1 MOL      0.058141
    142 N13        -6.2790    0.9780   -1.4860 n         1 MOL     -0.666886
    143 C46        -7.3810   -0.0400   -1.6850 c3        1 MOL      0.359706
    144 C47        -8.7010    0.6550   -2.1940 c         1 MOL      0.434913
    145 O19        -8.6310    1.5750   -3.0550 o         1 MOL     -0.532513
    146 C48        -6.9070   -1.2030   -2.5750 c3        1 MOL     -0.109112
    147 H67        -6.2660    1.7420   -2.1400 hn        1 MOL      0.327412
    148 H68        -7.6500   -0.5660   -0.7670 h1        1 MOL     -0.032630
    149 H69        -6.6050   -0.8960   -3.5810 hc        1 MOL      0.020570
    150 H70        -6.0560   -1.5730   -1.9910 hc        1 MOL      0.020570
    151 H71        -7.6680   -1.9770   -2.6370 hc        1 MOL      0.020570
    152 N14        -9.8760    0.1780   -1.8280 n         1 MOL     -0.510818
    153 C49       -10.3170   -1.0750   -1.0890 c3        1 MOL      0.104249
    154 C50       -10.3460   -0.9960    0.4440 c         1 MOL      0.485302
    155 O20        -9.8710   -1.9400    1.0700 o         1 MOL     -0.592443
    156 C51       -11.6550   -1.5480   -1.7090 c3        1 MOL     -0.185247
    157 C52       -12.9840   -0.9480   -1.1700 c3        1 MOL      0.031153
    158 C53       -13.0660    0.6000   -1.3940 c         1 MOL      0.635867
    159 O21       -12.8480    1.4170   -0.4440 o         1 MOL     -0.656503
    160 O22       -13.3440    0.9080   -2.5530 o         1 MOL     -0.656503
    161 H72       -10.6150    0.6340   -2.3480 hn        1 MOL      0.352493
    162 H73        -9.6170   -1.8990   -1.2390 h1        1 MOL      0.031458
    163 H74       -11.6370   -2.6230   -1.5120 hc        1 MOL      0.060380
    164 H75       -11.5320   -1.4280   -2.7840 hc        1 MOL      0.060380
    165 H76       -13.2020   -1.2010   -0.1270 hc        1 MOL     -0.021928
    166 H77       -13.7830   -1.3910   -1.7630 hc        1 MOL     -0.021928
    167 N15       -10.7200    0.1470    1.0000 n         1 MOL     -0.111710
    168 C54       -10.6050    0.3320    2.4650 c3        1 MOL     -0.372392
    169 H78       -11.1100    1.2540    2.7550 h1        1 MOL      0.138201
    170 H79       -11.0700   -0.5110    2.9760 h1        1 MOL      0.138201
    171 H80        -9.5530    0.3920    2.7440 h1        1 MOL      0.138201
    172 H81       -11.1840    0.7460    0.3380 hn        1 MOL      0.140247
    173 Ca1         2.2550    0.3640   -0.8690 Ca        1 MOL      1.789089
    174 O23         0.4140    2.3150   -1.6230 oh        1 MOL     -0.874775
    175 H82         0.6360    2.9730   -2.2780 ho        1 MOL      0.422742
    176 H83        -0.4640    2.5520   -1.3310 ho        1 MOL      0.422742
    177 O24         0.4170   -0.9030   -2.2180 oh        1 MOL     -0.874775
    178 H84        -0.2220   -0.3590   -2.6690 ho        1 MOL      0.422742
    179 H85         0.2310   -1.7890   -2.4990 ho        1 MOL      0.422742
    180 O25         2.6610    1.1060   -3.2870 oh        1 MOL     -0.874775
    181 H86         1.9250    1.0300   -3.8840 ho        1 MOL      0.422742
    182 H87         3.3350    0.5360   -3.6650 ho        1 MOL      0.422742
@<TRIPOS>BOND
     1    1    2 1   
     2    1    4 1   
     3    1    5 1   
     4    1    6 1   
     5    2    3 2   
     6    2    7 1   
     7    7    8 1   
     8    7   15 1   
     9    8    9 1   
    10    8   11 1   
    11    8   16 1   
    12    9   10 2   
    13    9   19 1   
    14   11   12 1   
    15   11   17 1   
    16   11   18 1   
    17   12   13 1   
    18   12   14 1   
    19   19   20 1   
    20   19   28 1   
    21   20   21 1   
    22   20   23 1   
    23   20   29 1   
    24   21   22 2   
    25   21   41 1   
    26   23   24 1   
    27   23   30 1   
    28   23   31 1   
    29   24   25 1   
    30   24   32 1   
    31   24   33 1   
    32   25   26 1   
    33   25   34 1   
    34   25   35 1   
    35   26   27 1   
    36   26   36 1   
    37   26   37 1   
    38   27   38 1   
    39   27   39 1   
    40   27   40 1   
    41   41   42 1   
    42   41   49 1   
    43   42   43 1   
    44   42   45 1   
    45   42   50 1   
    46   43   44 2   
    47   43   53 1   
    48   45   46 1   
    49   45   51 1   
    50   45   52 1   
    51   46   47 1   
    52   46   48 1   
    53   53   54 1   
    54   53   57 1   
    55   54   55 1   
    56   54   58 1   
    57   54   59 1   
    58   55   56 2   
    59   55   60 1   
    60   60   61 1   
    61   60   68 1   
    62   61   62 1   
    63   61   64 1   
    64   61   69 1   
    65   62   63 2   
    66   62   74 1   
    67   64   65 1   
    68   64   70 1   
    69   64   71 1   
    70   65   66 1   
    71   65   67 2   
    72   66   72 1   
    73   66   73 1   
    74   74   75 1   
    75   74   78 1   
    76   75   76 1   
    77   75   79 1   
    78   75   80 1   
    79   76   77 2   
    80   76   81 1   
    81   81   82 1   
    82   81   93 1   
    83   82   83 1   
    84   82   85 1   
    85   82   94 1   
    86   83   84 2   
    87   83  102 1   
    88   85   86 1   
    89   85   95 1   
    90   85   96 1   
    91   86   87 ar  
    92   86   88 ar  
    93   87   89 ar  
    94   87   97 1   
    95   88   90 ar  
    96   88   98 1   
    97   89   91 ar  
    98   89   99 1   
    99   90   91 ar  
   100   90  100 1   
   101   91   92 1   
   102   92  101 1   
   103  102  103 1   
   104  102  110 1   
   105  103  104 1   
   106  103  106 1   
   107  103  111 1   
   108  104  105 2   
   109  104  121 1   
   110  106  107 1   
   111  106  108 1   
   112  106  112 1   
   113  107  109 1   
   114  107  113 1   
   115  107  114 1   
   116  108  115 1   
   117  108  116 1   
   118  108  117 1   
   119  109  118 1   
   120  109  119 1   
   121  109  120 1   
   122  121  122 1   
   123  121  127 1   
   124  122  123 1   
   125  122  125 1   
   126  122  128 1   
   127  123  124 2   
   128  123  132 1   
   129  125  126 1   
   130  125  129 1   
   131  125  130 1   
   132  126  131 1   
   133  132  133 1   
   134  132  137 1   
   135  133  134 1   
   136  133  136 1   
   137  133  138 1   
   138  134  135 2   
   139  134  142 1   
   140  136  139 1   
   141  136  140 1   
   142  136  141 1   
   143  142  143 1   
   144  142  147 1   
   145  143  144 1   
   146  143  146 1   
   147  143  148 1   
   148  144  145 2   
   149  144  152 1   
   150  146  149 1   
   151  146  150 1   
   152  146  151 1   
   153  152  153 1   
   154  152  161 1   
   155  153  154 1   
   156  153  156 1   
   157  153  162 1   
   158  154  155 2   
   159  154  167 1   
   160  156  157 1   
   161  156  163 1   
   162  156  164 1   
   163  157  158 1   
   164  157  165 1   
   165  157  166 1   
   166  158  159 1   
   167  158  160 1   
   168  167  168 1   
   169  167  172 1   
   170  168  169 1   
   171  168  170 1   
   172  168  171 1   
   173  174  175 1   
   174  174  176 1   
   175  177  178 1   
   176  177  179 1   
   177  180  181 1   
   178  180  182 1   
@<TRIPOS>SUBSTRUCTURE
     1 MOL         1 TEMP              0 ****  ****    0 ROOT
