@<TRIPOS>MOLECULE
MOL
  189   185     1     0     0
SMALL
resp


@<TRIPOS>ATOM
      1 C1          3.9170    4.8500   -2.9980 c3        1 MOL     -0.355581
      2 C2          4.7040    3.9640   -1.9000 c         1 MOL      0.773411
      3 O1          4.0480    3.4990   -0.9640 o         1 MOL     -0.643290
      4 H1          3.0580    5.3300   -2.5290 hc        1 MOL      0.079703
      5 H2          4.5850    5.6140   -3.3960 hc        1 MOL      0.079703
      6 H3          3.5760    4.2060   -3.8090 hc        1 MOL      0.079703
      7 N1          5.9860    3.7300   -2.1650 n         1 MOL     -0.678191
      8 C3          6.7810    2.5680   -1.6890 c3        1 MOL      0.411055
      9 C4          5.9370    1.2760   -1.5730 c         1 MOL      0.306948
     10 O2          5.6110    0.8480   -0.4220 o         1 MOL     -0.502087
     11 C5          7.7170    2.9920   -0.5060 c3        1 MOL     -0.194057
     12 C6          7.0030    4.0000    0.4610 c         1 MOL      0.682957
     13 O3          5.9570    3.5510    1.0680 o         1 MOL     -0.696766
     14 O4          7.4750    5.1390    0.6540 o         1 MOL     -0.696766
     15 H4          6.3870    4.2020   -2.9690 hn        1 MOL      0.313622
     16 H5          7.4440    2.2930   -2.5120 h1        1 MOL     -0.028910
     17 H6          8.5660    3.4540   -1.0070 hc        1 MOL      0.019135
     18 H7          8.0160    2.1130    0.0520 hc        1 MOL      0.019135
     19 N2          5.4940    0.6780   -2.6730 n         1 MOL     -0.524454
     20 C7          5.0220   -0.7090   -3.0050 c3        1 MOL      0.496563
     21 C8          5.7760   -1.8930   -2.5400 c         1 MOL      0.176259
     22 O5          6.2330   -2.7050   -3.3630 o         1 MOL     -0.557813
     23 C9          3.5050   -0.6900   -2.7730 c3        1 MOL      0.325124
     24 C10         2.6730   -1.8860   -3.1590 c3        1 MOL     -0.100452
     25 C11         2.7970    0.4560   -3.4660 c3        1 MOL     -0.469552
     26 C12         2.8240   -2.3380   -4.6400 c3        1 MOL     -0.120160
     27 H8          5.6760    1.1890   -3.5280 hn        1 MOL      0.255908
     28 H9          5.1820   -0.6410   -4.0840 h1        1 MOL     -0.068973
     29 H10         3.3680   -0.6020   -1.6970 hc        1 MOL     -0.189162
     30 H11         1.6120   -1.6900   -2.9720 hc        1 MOL      0.060623
     31 H12         3.0060   -2.7160   -2.5380 hc        1 MOL      0.060623
     32 H13         3.0550    0.6170   -4.5090 hc        1 MOL      0.094667
     33 H14         1.7200    0.3380   -3.3340 hc        1 MOL      0.094667
     34 H15         3.0360    1.3850   -2.9360 hc        1 MOL      0.094667
     35 H16         2.0740   -3.0760   -4.9130 hc        1 MOL      0.010349
     36 H17         2.5860   -1.5860   -5.3890 hc        1 MOL      0.010349
     37 H18         3.8350   -2.7030   -4.8360 hc        1 MOL      0.010349
     38 N3          5.9780   -1.9730   -1.2400 n         1 MOL     -0.055647
     39 C13         7.0580   -2.8780   -0.6620 c3        1 MOL      0.046421
     40 C14         6.6970   -4.3850   -0.4540 c         1 MOL      0.363311
     41 O6          7.7620   -5.0780   -0.3820 o         1 MOL     -0.529588
     42 C15         7.5240   -2.2200    0.7220 c3        1 MOL      0.070487
     43 C16         8.9890   -2.0860    0.8710 c         1 MOL      0.536785
     44 O7          9.4610   -0.9390    0.6750 o         1 MOL     -0.696454
     45 O8          9.6800   -3.1360    0.9250 o         1 MOL     -0.696454
     46 H19         5.4720   -1.2940   -0.6930 hn        1 MOL      0.215062
     47 H20         7.9830   -2.8300   -1.2430 h1        1 MOL      0.117011
     48 H21         7.1180   -2.7910    1.5460 hc        1 MOL     -0.030146
     49 H22         7.1420   -1.1980    0.6760 hc        1 MOL     -0.030146
     50 N4          5.4930   -4.8710   -0.2690 n         1 MOL     -0.443191
     51 C17         4.3600   -4.1240    0.2080 c3        1 MOL      0.362621
     52 C18         3.3030   -4.9540    0.9470 c         1 MOL      0.484641
     53 O9          3.2920   -6.1890    0.6770 o         1 MOL     -0.606182
     54 H23         5.3850   -5.8750   -0.3130 hn        1 MOL      0.265143
     55 H24         3.8380   -3.7100   -0.6480 h1        1 MOL     -0.039540
     56 H25         4.7630   -3.3470    0.8610 h1        1 MOL     -0.039540
     57 N5          2.3820   -4.4000    1.7380 n         1 MOL     -0.448410
     58 C19         2.2640   -3.0400    2.3100 c3        1 MOL      0.112648
     59 C20         2.4420   -1.8220    1.4450 c         1 MOL      0.510661
     60 O10         3.4850   -1.5250    0.8820 o         1 MOL     -0.667337
     61 C21         3.2090   -3.0240    3.4790 c3        1 MOL     -0.383054
     62 C22         3.2120   -1.7410    4.2550 c         1 MOL      0.759176
     63 O11         4.2830   -1.1200    4.5200 o         1 MOL     -0.698517
     64 O12         2.1100   -1.2150    4.5100 o         1 MOL     -0.698517
     65 H26         1.6310   -5.0560    1.9030 hn        1 MOL      0.279828
     66 H27         1.2810   -2.9830    2.7700 h1        1 MOL      0.098210
     67 H28         4.1980   -3.2780    3.1090 hc        1 MOL      0.087674
     68 H29         3.0190   -3.8290    4.1900 hc        1 MOL      0.087674
     69 N6          1.2980   -1.2100    1.0280 n         1 MOL     -0.106262
     70 C23        -0.1630   -1.5350    1.1930 c3        1 MOL     -0.115087
     71 C24        -0.6980   -2.6200    0.2200 c         1 MOL      0.472126
     72 O13         0.1050   -3.2970   -0.4660 o         1 MOL     -0.573643
     73 H30         1.4680   -0.3630    0.5120 hn        1 MOL      0.165536
     74 H31        -0.6540   -0.5800    0.9890 h1        1 MOL      0.055182
     75 H32        -0.3880   -1.7760    2.2380 h1        1 MOL      0.055182
     76 N7         -1.9480   -2.9050    0.2130 n         1 MOL     -0.237764
     77 C25        -2.5150   -4.0900   -0.5490 c3        1 MOL     -0.053176
     78 C26        -3.4150   -3.6510   -1.7870 c         1 MOL      0.391615
     79 O14        -3.7490   -4.4740   -2.6430 o         1 MOL     -0.532383
     80 C27        -3.3350   -5.0060    0.5000 c3        1 MOL     -0.092508
     81 C28        -4.5310   -4.4470    1.1990 c3        1 MOL     -0.199836
     82 C29        -5.6690   -4.1280    0.2940 c         1 MOL      0.563011
     83 N8         -6.3680   -5.1060   -0.3050 n         1 MOL     -0.772177
     84 O15        -5.9730   -2.9830    0.0650 o         1 MOL     -0.491542
     85 H33        -2.6080   -2.4150    0.7920 hn        1 MOL      0.211927
     86 H34        -1.6770   -4.6590   -0.9550 h1        1 MOL      0.158729
     87 H35        -2.7430   -5.3970    1.3220 hc        1 MOL      0.046248
     88 H36        -3.7230   -5.8700   -0.0470 hc        1 MOL      0.046248
     89 H37        -4.2040   -3.5730    1.7660 hc        1 MOL      0.099129
     90 H38        -4.9730   -5.1280    1.9250 hc        1 MOL      0.099129
     91 H39        -6.0380   -6.0610   -0.2540 hn        1 MOL      0.376075
     92 H40        -7.0880   -4.7330   -0.9020 hn        1 MOL      0.376075
     93 N9         -3.6390   -2.3490   -1.9810 n         1 MOL     -0.107722
     94 C30        -4.1090   -1.6980   -3.1820 c3        1 MOL      0.002312
     95 C31        -5.4430   -1.0300   -3.1240 c         1 MOL      0.296846
     96 O16        -5.7960   -0.4140   -4.1260 o         1 MOL     -0.527435
     97 C32        -3.0670   -0.8200   -3.8240 c3        1 MOL      0.045868
     98 C33        -1.7420   -1.5520   -4.0540 c3        1 MOL     -0.063360
     99 C34        -2.7990    0.4040   -2.9270 c3        1 MOL     -0.063360
    100 H41        -3.3960   -1.7780   -1.1790 hn        1 MOL      0.171584
    101 H42        -4.2710   -2.5040   -3.8940 h1        1 MOL      0.100769
    102 H43        -3.3130   -0.5270   -4.8490 hc        1 MOL      0.028862
    103 H44        -1.9340   -2.4500   -4.6420 hc        1 MOL      0.014473
    104 H45        -0.9890   -0.9450   -4.5600 hc        1 MOL      0.014473
    105 H46        -1.2540   -1.8570   -3.1330 hc        1 MOL      0.014473
    106 H47        -2.2320    1.1450   -3.4880 hc        1 MOL      0.014473
    107 H48        -3.7200    0.9270   -2.6640 hc        1 MOL      0.014473
    108 H49        -2.2510    0.1710   -2.0190 hc        1 MOL      0.014473
    109 N10        -6.2400   -1.0840   -2.0330 n         1 MOL     -0.023143
    110 C35        -7.5430   -0.3660   -1.9680 c3        1 MOL     -0.070126
    111 C36        -7.5290    0.9340   -1.2010 c         1 MOL      0.465885
    112 O17        -8.4920    1.7070   -1.2040 o         1 MOL     -0.516426
    113 C37        -8.5690   -1.3660   -1.3310 c3        1 MOL     -0.272912
    114 C38        -8.6850   -2.6360   -2.1310 c         1 MOL      0.702278
    115 N11        -9.0200   -2.5520   -3.3820 n         1 MOL     -0.787304
    116 O18        -8.6500   -3.6940   -1.5780 o         1 MOL     -0.578281
    117 H50        -6.0190   -1.6200   -1.2010 hn        1 MOL      0.034128
    118 H51        -7.9560   -0.1930   -2.9690 h1        1 MOL      0.076944
    119 H52        -9.5630   -0.9280   -1.3720 hc        1 MOL      0.102339
    120 H53        -8.3780   -1.5780   -0.2820 hc        1 MOL      0.102339
    121 H54        -9.0810   -1.6390   -3.8240 hn        1 MOL      0.368330
    122 H55        -9.2960   -3.3890   -3.8570 hn        1 MOL      0.368330
    123 N12        -6.4210    1.1580   -0.4020 n         1 MOL     -0.222470
    124 C39        -6.2680    2.3320    0.3680 c3        1 MOL      0.033814
    125 C40        -4.7730    2.6740    0.6530 c         1 MOL      0.476583
    126 O19        -3.9220    2.0800    0.0300 o         1 MOL     -0.488078
    127 C41        -7.1330    2.3030    1.6390 c3        1 MOL     -0.162437
    128 C42        -6.7440    1.2550    2.6170 ca        1 MOL      0.179672
    129 C43        -6.0940    1.6590    3.7660 ca        1 MOL     -0.182101
    130 C44        -7.2340   -0.0530    2.5150 ca        1 MOL     -0.182101
    131 C45        -5.9590    0.7300    4.8210 ca        1 MOL     -0.413790
    132 C46        -7.0470   -1.0130    3.5470 ca        1 MOL     -0.413790
    133 C47        -6.4000   -0.6370    4.7030 ca        1 MOL      0.542296
    134 O20        -6.3080   -1.4580    5.7530 oh        1 MOL     -0.563027
    135 H56        -5.5920    0.5960   -0.5620 hn        1 MOL      0.206051
    136 H57        -6.7080    3.1250   -0.2230 h1        1 MOL      0.046309
    137 H58        -8.1680    2.0880    1.3620 hc        1 MOL      0.040524
    138 H59        -7.1640    3.2150    2.2500 hc        1 MOL      0.040524
    139 H60        -5.6590    2.6470    3.8490 ha        1 MOL      0.162988
    140 H61        -7.7540   -0.3700    1.6160 ha        1 MOL      0.162988
    141 H62        -5.4570    1.0420    5.7320 ha        1 MOL      0.181303
    142 H63        -7.3370   -2.0450    3.3980 ha        1 MOL      0.181303
    143 H64        -6.2180   -1.0100    6.5980 ho        1 MOL      0.394724
    144 N13        -4.4930    3.5760    1.6240 n         1 MOL     -0.457997
    145 C48        -3.2460    4.2090    2.0200 c3        1 MOL      0.021762
    146 C49        -2.2210    4.6970    0.9650 c         1 MOL      0.437885
    147 O21        -1.6110    5.7380    1.1370 o         1 MOL     -0.521837
    148 C50        -2.4570    3.3070    3.0330 c3        1 MOL     -0.287370
    149 C51        -1.9170    1.9540    2.6380 c3        1 MOL     -0.042090
    150 C52        -1.1060    1.3210    3.7890 c         1 MOL      0.662670
    151 O22        -1.2670    0.1040    4.0900 o         1 MOL     -0.686188
    152 O23        -0.2610    2.0220    4.3760 o         1 MOL     -0.686188
    153 H65        -5.2890    4.0350    2.0350 hn        1 MOL      0.289029
    154 H66        -3.5380    5.0930    2.5830 h1        1 MOL      0.073203
    155 H67        -3.1830    3.1030    3.8210 hc        1 MOL      0.102439
    156 H68        -1.6020    3.9500    3.2530 hc        1 MOL      0.102439
    157 H69        -1.2740    2.0010    1.7610 hc        1 MOL      0.025740
    158 H70        -2.7390    1.2740    2.4440 hc        1 MOL      0.025740
    159 N14        -2.0420    4.0930   -0.2830 n         1 MOL     -0.179764
    160 C53        -0.9390    4.4980   -1.2190 c3        1 MOL     -0.180096
    161 C54        -1.3220    5.7570   -2.1140 c         1 MOL      0.450469
    162 O24        -0.4910    6.3350   -2.7970 o         1 MOL     -0.507681
    163 C55        -0.5860    3.2330   -1.9960 c3        1 MOL      0.011396
    164 C56        -0.1630    1.9840   -1.2530 c3        1 MOL      0.402184
    165 C57         1.1430    2.1070   -0.3600 c         1 MOL      0.505322
    166 O25         1.3910    3.1410    0.3000 o         1 MOL     -0.609253
    167 O26         1.9490    1.1410   -0.2640 o         1 MOL     -0.609253
    168 H71        -2.6380    3.3150   -0.5210 hn        1 MOL      0.163086
    169 H72        -0.1270    4.8170   -0.5660 h1        1 MOL      0.188872
    170 H73         0.2150    3.5030   -2.6870 hc        1 MOL     -0.013831
    171 H74        -1.4010    2.8800   -2.6170 hc        1 MOL     -0.013831
    172 H75         0.1320    1.1940   -1.9560 hc        1 MOL     -0.112650
    173 H76        -0.8760    1.5690   -0.5350 hc        1 MOL     -0.112650
    174 N15        -2.6310    6.1320   -2.1010 n         1 MOL     -0.166869
    175 C58        -3.2950    7.1530   -2.8750 c3        1 MOL     -0.262864
    176 H77        -4.2570    7.3860   -2.4190 h1        1 MOL      0.098146
    177 H78        -2.6780    8.0510   -2.8970 h1        1 MOL      0.098146
    178 H79        -3.4520    6.7950   -3.8920 h1        1 MOL      0.098146
    179 H80        -3.2000    5.5700   -1.4790 hn        1 MOL      0.153952
    180 Ca1         3.8800    1.8020    1.1760 Ca        1 MOL      1.827544
    181 O27         5.6070    0.4520    2.7630 oh        1 MOL     -0.910437
    182 H81         6.5580    0.4620    2.8060 ho        1 MOL      0.428820
    183 H82         5.3470   -0.3080    3.2850 ho        1 MOL      0.428820
    184 O28         3.7580    3.6500    3.1340 oh        1 MOL     -0.910437
    185 H83         4.2750    3.7760    3.9370 ho        1 MOL      0.428820
    186 H84         2.9610    4.1610    3.2720 ho        1 MOL      0.428820
    187 O29         2.0410    0.9750    3.0600 oh        1 MOL     -0.910437
    188 H85         2.2400    0.2160    3.5970 ho        1 MOL      0.428820
    189 H86         1.1840    1.2740    3.3810 ho        1 MOL      0.428820
@<TRIPOS>BOND
     1    1    2 1   
     2    1    4 1   
     3    1    5 1   
     4    1    6 1   
     5    2    3 2   
     6    2    7 1   
     7    7    8 1   
     8    7   15 1   
     9    8    9 1   
    10    8   11 1   
    11    8   16 1   
    12    9   10 2   
    13    9   19 1   
    14   11   12 1   
    15   11   17 1   
    16   11   18 1   
    17   12   13 1   
    18   12   14 1   
    19   19   20 1   
    20   19   27 1   
    21   20   21 1   
    22   20   23 1   
    23   20   28 1   
    24   21   22 2   
    25   21   38 1   
    26   23   24 1   
    27   23   25 1   
    28   23   29 1   
    29   24   26 1   
    30   24   30 1   
    31   24   31 1   
    32   25   32 1   
    33   25   33 1   
    34   25   34 1   
    35   26   35 1   
    36   26   36 1   
    37   26   37 1   
    38   38   39 1   
    39   38   46 1   
    40   39   40 1   
    41   39   42 1   
    42   39   47 1   
    43   40   41 2   
    44   40   50 1   
    45   42   43 1   
    46   42   48 1   
    47   42   49 1   
    48   43   44 1   
    49   43   45 1   
    50   50   51 1   
    51   50   54 1   
    52   51   52 1   
    53   51   55 1   
    54   51   56 1   
    55   52   53 2   
    56   52   57 1   
    57   57   58 1   
    58   57   65 1   
    59   58   59 1   
    60   58   61 1   
    61   58   66 1   
    62   59   60 2   
    63   59   69 1   
    64   61   62 1   
    65   61   67 1   
    66   61   68 1   
    67   62   63 1   
    68   62   64 1   
    69   69   70 1   
    70   69   73 1   
    71   70   71 1   
    72   70   74 1   
    73   70   75 1   
    74   71   72 2   
    75   71   76 1   
    76   76   77 1   
    77   76   85 1   
    78   77   78 1   
    79   77   80 1   
    80   77   86 1   
    81   78   79 2   
    82   78   93 1   
    83   80   81 1   
    84   80   87 1   
    85   80   88 1   
    86   81   82 1   
    87   81   89 1   
    88   81   90 1   
    89   82   83 1   
    90   82   84 2   
    91   83   91 1   
    92   83   92 1   
    93   93   94 1   
    94   93  100 1   
    95   94   95 1   
    96   94   97 1   
    97   94  101 1   
    98   95   96 2   
    99   95  109 1   
   100   97   98 1   
   101   97   99 1   
   102   97  102 1   
   103   98  103 1   
   104   98  104 1   
   105   98  105 1   
   106   99  106 1   
   107   99  107 1   
   108   99  108 1   
   109  109  110 1   
   110  109  117 1   
   111  110  111 1   
   112  110  113 1   
   113  110  118 1   
   114  111  112 2   
   115  111  123 1   
   116  113  114 1   
   117  113  119 1   
   118  113  120 1   
   119  114  115 1   
   120  114  116 2   
   121  115  121 1   
   122  115  122 1   
   123  123  124 1   
   124  123  135 1   
   125  124  125 1   
   126  124  127 1   
   127  124  136 1   
   128  125  126 2   
   129  125  144 1   
   130  127  128 1   
   131  127  137 1   
   132  127  138 1   
   133  128  129 ar  
   134  128  130 ar  
   135  129  131 ar  
   136  129  139 1   
   137  130  132 ar  
   138  130  140 1   
   139  131  133 ar  
   140  131  141 1   
   141  132  133 ar  
   142  132  142 1   
   143  133  134 1   
   144  134  143 1   
   145  144  145 1   
   146  144  153 1   
   147  145  146 1   
   148  145  148 1   
   149  145  154 1   
   150  146  147 2   
   151  146  159 1   
   152  148  149 1   
   153  148  155 1   
   154  148  156 1   
   155  149  150 1   
   156  149  157 1   
   157  149  158 1   
   158  150  151 1   
   159  150  152 1   
   160  159  160 1   
   161  159  168 1   
   162  160  161 1   
   163  160  163 1   
   164  160  169 1   
   165  161  162 2   
   166  161  174 1   
   167  163  164 1   
   168  163  170 1   
   169  163  171 1   
   170  164  165 1   
   171  164  172 1   
   172  164  173 1   
   173  165  166 1   
   174  165  167 1   
   175  174  175 1   
   176  174  179 1   
   177  175  176 1   
   178  175  177 1   
   179  175  178 1   
   180  181  182 1   
   181  181  183 1   
   182  184  185 1   
   183  184  186 1   
   184  187  188 1   
   185  187  189 1   
@<TRIPOS>SUBSTRUCTURE
     1 MOL         1 TEMP              0 ****  ****    0 ROOT
