@<TRIPOS>MOLECULE
MOL
  195   189     1     0     0
SMALL
resp


@<TRIPOS>ATOM
      1 C1         -4.3260    6.9440   -1.4260 c3        1 MOL     -0.430503
      2 C2         -4.0830    5.5920   -0.8520 c         1 MOL      0.608695
      3 O1         -3.5690    5.4480    0.2840 o         1 MOL     -0.549198
      4 H1         -5.3070    7.3000   -1.1140 hc        1 MOL      0.115950
      5 H2         -3.5600    7.6330   -1.0690 hc        1 MOL      0.115950
      6 H3         -4.2890    6.8910   -2.5130 hc        1 MOL      0.115950
      7 N1         -4.2580    4.5050   -1.6470 n         1 MOL     -0.387815
      8 C3         -4.1360    3.1240   -1.1610 c3        1 MOL     -0.033856
      9 C4         -2.7120    2.6240   -1.1500 c         1 MOL      0.509069
     10 O2         -2.4430    1.8350   -0.2360 o         1 MOL     -0.517841
     11 C5         -5.0600    2.1130   -1.8210 c3        1 MOL     -0.014551
     12 C6         -4.8850    2.1610   -3.3110 c         1 MOL      0.656459
     13 O3         -4.2100    1.2100   -3.7790 o         1 MOL     -0.684027
     14 O4         -5.2850    3.1090   -4.0080 o         1 MOL     -0.684027
     15 H4         -4.7920    4.6550   -2.4930 hn        1 MOL      0.247417
     16 H5         -4.4030    3.2570   -0.1080 h1        1 MOL      0.108146
     17 H6         -6.1010    2.2890   -1.5630 hc        1 MOL     -0.025966
     18 H7         -4.8810    1.0910   -1.4780 hc        1 MOL     -0.025966
     19 N2         -1.7980    3.0720   -2.0460 n         1 MOL     -0.381036
     20 C7         -0.3940    2.5940   -2.0170 c3        1 MOL     -0.036985
     21 C8          0.3550    3.2550   -0.7730 c         1 MOL      0.717347
     22 O5          0.2260    4.4930   -0.6140 o         1 MOL     -0.631420
     23 C9          0.2200    2.7300   -3.4560 c3        1 MOL     -0.002705
     24 C10         0.5880    4.1550   -3.8270 c3        1 MOL      0.284792
     25 C11         0.9520    4.2820   -5.3460 c3        1 MOL     -0.017258
     26 C12         1.7820    5.5370   -5.5310 c3        1 MOL     -0.122563
     27 N3          3.2050    5.3650   -5.0080 n4        1 MOL     -0.397831
     28 H8         -2.0760    3.8280   -2.6660 hn        1 MOL      0.266173
     29 H9         -0.3350    1.5640   -1.6430 h1        1 MOL      0.130834
     30 H10        -0.4890    2.2990   -4.1590 hc        1 MOL      0.009445
     31 H11         1.1240    2.1190   -3.5140 hc        1 MOL      0.009445
     32 H12         1.4690    4.3190   -3.2020 hc        1 MOL     -0.085139
     33 H13        -0.2360    4.8250   -3.5640 hc        1 MOL     -0.085139
     34 H14         0.0410    4.2220   -5.9300 hc        1 MOL      0.043232
     35 H15         1.6670    3.5010   -5.6080 hc        1 MOL      0.043232
     36 H16         1.2870    6.3710   -5.0330 hx        1 MOL      0.127517
     37 H17         1.8570    5.7530   -6.5950 hx        1 MOL      0.127517
     38 H18         3.1390    5.3250   -4.0000 hn        1 MOL      0.343977
     39 H19         3.6700    4.5260   -5.3250 hn        1 MOL      0.343977
     40 H20         3.7680    6.1720   -5.2330 hn        1 MOL      0.343977
     41 N4          1.1230    2.5650    0.0810 n         1 MOL     -0.584319
     42 C13         1.6420    1.2450   -0.0120 c3        1 MOL     -0.005802
     43 C14         2.2110    0.8030   -1.4000 c         1 MOL      0.093852
     44 O6          1.6360   -0.0900   -2.0100 o         1 MOL     -0.401887
     45 C15         0.6520    0.2160    0.5750 c3        1 MOL      0.111598
     46 C16         0.1540    0.5540    2.0220 c         1 MOL      0.591620
     47 O7          0.7100    1.4310    2.6840 o         1 MOL     -0.683898
     48 O8         -0.8090   -0.0920    2.5150 o         1 MOL     -0.683898
     49 H21         1.5010    3.0800    0.8560 hn        1 MOL      0.319642
     50 H22         2.5050    1.2420    0.6580 h1        1 MOL      0.092830
     51 H23         1.0500   -0.7980    0.6560 hc        1 MOL      0.030012
     52 H24        -0.2700    0.1870   -0.0020 hc        1 MOL      0.030012
     53 N5          3.2350    1.4600   -1.8830 n         1 MOL     -0.099050
     54 C17         4.1610    2.3090   -1.1190 c3        1 MOL     -0.353333
     55 C18         5.6240    1.7580   -1.3540 c         1 MOL      0.536902
     56 O9          5.8060    1.1120   -2.4010 o         1 MOL     -0.564933
     57 H25         3.5440    1.1880   -2.8140 hn        1 MOL      0.253267
     58 H26         3.8830    2.4220   -0.0740 h1        1 MOL      0.150472
     59 H27         4.1120    3.3280   -1.5120 h1        1 MOL      0.150472
     60 N6          6.5370    1.8830   -0.3740 n         1 MOL     -0.389762
     61 C19         6.3190    2.1310    1.0500 c3        1 MOL     -0.041771
     62 C20         7.1800    1.0530    1.8280 c         1 MOL      0.607675
     63 O10         8.1130    0.4130    1.3310 o         1 MOL     -0.444071
     64 C21         6.6980    3.6670    1.2420 c3        1 MOL     -0.137429
     65 C22         8.0230    4.0870    0.5480 c         1 MOL      0.723126
     66 O11         9.0090    3.3990    0.7380 o         1 MOL     -0.694228
     67 O12         7.9930    5.1040   -0.1970 o         1 MOL     -0.694228
     68 H28         7.3800    1.3760   -0.6210 hn        1 MOL      0.319917
     69 H29         5.2720    1.9050    1.1940 h1        1 MOL      0.009772
     70 H30         6.6800    3.9730    2.2880 hc        1 MOL      0.001721
     71 H31         5.9330    4.1920    0.6740 hc        1 MOL      0.001721
     72 N7          6.8650    0.9570    3.1230 n         1 MOL     -0.461446
     73 C23         7.2770   -0.2160    3.8900 c3        1 MOL     -0.099704
     74 C24         6.5450   -1.5360    3.4490 c         1 MOL      0.492750
     75 O13         7.1730   -2.5990    3.5240 o         1 MOL     -0.521834
     76 H32         6.2320    1.5510    3.6430 hn        1 MOL      0.314193
     77 H33         7.0390   -0.0820    4.9430 h1        1 MOL      0.093999
     78 H34         8.3570   -0.3660    3.8010 h1        1 MOL      0.093999
     79 N8          5.2930   -1.3940    3.0180 n         1 MOL     -0.402146
     80 C25         4.5780   -2.4030    2.2580 c3        1 MOL      0.113421
     81 C26         4.4100   -1.9710    0.8230 c         1 MOL      0.574150
     82 O14         3.9800   -0.8550    0.5430 o         1 MOL     -0.569524
     83 C27         3.1710   -2.6220    2.8430 c3        1 MOL      0.453260
     84 C28         3.0600   -3.1340    4.2960 c3        1 MOL     -0.716717
     85 O15         2.4560   -3.5280    2.1040 oh        1 MOL     -0.657589
     86 H35         4.7670   -0.5570    3.2150 hn        1 MOL      0.231876
     87 H36         5.1350   -3.3360    2.2100 h1        1 MOL      0.080901
     88 H37         2.5940   -1.7190    2.6630 h1        1 MOL     -0.029405
     89 H38         1.5950   -3.2820    2.4550 ho        1 MOL      0.454569
     90 H39         3.6690   -2.6490    5.0530 hc        1 MOL      0.177411
     91 H40         2.0210   -3.1430    4.6200 hc        1 MOL      0.177411
     92 H41         3.3980   -4.1750    4.3080 hc        1 MOL      0.177411
     93 N9          4.8040   -2.8750   -0.1000 n         1 MOL     -0.458840
     94 C29         4.9860   -2.5320   -1.5470 c3        1 MOL     -0.172242
     95 C30         3.7160   -2.8920   -2.4150 c         1 MOL      0.474471
     96 O16         3.7120   -2.8420   -3.6450 o         1 MOL     -0.538859
     97 C31         6.2690   -3.1140   -2.1000 c3        1 MOL      0.292018
     98 C32         6.3700   -4.6490   -2.0920 c3        1 MOL      0.153068
     99 C33         7.5460   -2.5220   -1.5450 c3        1 MOL     -0.149839
    100 C34         6.9800   -5.1200   -3.4670 c3        1 MOL     -0.233181
    101 H42         5.1810   -3.7580    0.2100 hn        1 MOL      0.246908
    102 H43         5.0480   -1.4470   -1.5450 h1        1 MOL      0.183669
    103 H44         6.3130   -2.7870   -3.1440 hc        1 MOL     -0.031854
    104 H45         5.4040   -5.1170   -1.9570 hc        1 MOL     -0.042401
    105 H46         7.0460   -4.9730   -1.2920 hc        1 MOL     -0.042401
    106 H47         7.7110   -2.7680   -0.4990 hc        1 MOL      0.027378
    107 H48         8.4370   -2.8450   -2.0900 hc        1 MOL      0.027378
    108 H49         7.4980   -1.4400   -1.5620 hc        1 MOL      0.027378
    109 H50         6.2940   -4.7430   -4.2330 hc        1 MOL      0.052478
    110 H51         7.9960   -4.7410   -3.5840 hc        1 MOL      0.052478
    111 H52         7.1380   -6.1990   -3.5310 hc        1 MOL      0.052478
    112 N10         2.5300   -3.1350   -1.7780 n         1 MOL      0.024417
    113 C35         1.2710   -3.4930   -2.4050 c3        1 MOL     -0.548818
    114 C36         0.0610   -3.1310   -1.5210 c         1 MOL      0.733603
    115 O17         0.0150   -3.1820   -0.3010 o         1 MOL     -0.517647
    116 C37         1.2310   -4.9950   -2.6910 c3        1 MOL      0.596334
    117 C38         1.7420   -5.9870   -1.6080 c3        1 MOL     -0.403025
    118 O18         2.2590   -5.1800   -3.7210 oh        1 MOL     -0.691638
    119 H53         2.4730   -3.0640   -0.7700 hn        1 MOL      0.149756
    120 H54         1.1830   -2.9230   -3.3190 h1        1 MOL      0.156322
    121 H55         0.2720   -5.2820   -3.1140 h1        1 MOL     -0.034641
    122 H56         2.7120   -4.3480   -3.8870 ho        1 MOL      0.386892
    123 H57         1.4480   -6.9840   -1.9390 hc        1 MOL      0.098167
    124 H58         2.8110   -5.7890   -1.5080 hc        1 MOL      0.098167
    125 H59         1.2830   -5.6840   -0.6600 hc        1 MOL      0.098167
    126 N11        -1.0540   -2.8120   -2.2290 n         1 MOL     -0.687668
    127 C39        -2.2070   -2.1570   -1.5420 c3        1 MOL      0.194539
    128 C40        -3.2480   -3.1360   -0.9490 c         1 MOL      0.577542
    129 O19        -3.1690   -4.3290   -1.1630 o         1 MOL     -0.535547
    130 C41        -2.9270   -1.2450   -2.4970 c3        1 MOL      0.313539
    131 C42        -3.5150   -2.0110   -3.7010 c3        1 MOL     -0.399590
    132 O20        -2.0050   -0.3460   -2.9720 oh        1 MOL     -0.587300
    133 H60        -0.9980   -2.8030   -3.2440 hn        1 MOL      0.369959
    134 H61        -1.7880   -1.6240   -0.6780 h1        1 MOL     -0.040630
    135 H62        -3.6390   -0.6640   -1.9050 h1        1 MOL      0.091552
    136 H63        -2.5620    0.3020   -3.4100 ho        1 MOL      0.368028
    137 H64        -4.2490   -2.7780   -3.4590 hc        1 MOL      0.080092
    138 H65        -3.9530   -1.3370   -4.4330 hc        1 MOL      0.080092
    139 H66        -2.7020   -2.6140   -4.1110 hc        1 MOL      0.080092
    140 N12        -4.1790   -2.5990   -0.1520 n         1 MOL     -0.221170
    141 C43        -5.3630   -3.1990    0.4270 c3        1 MOL     -0.351757
    142 C44        -6.1640   -2.4900    1.5600 c         1 MOL      0.786656
    143 O21        -7.1290   -3.0590    2.0160 o         1 MOL     -0.581404
    144 C45        -6.2930   -3.6040   -0.7580 c3        1 MOL     -0.056778
    145 C46        -7.0940   -2.4680   -1.4510 c3        1 MOL      0.021697
    146 C47        -8.0330   -3.0600   -2.4800 c3        1 MOL     -0.214332
    147 C48        -7.2850   -3.4310   -3.7540 c3        1 MOL      0.136258
    148 N13        -8.2430   -4.0930   -4.6650 n4        1 MOL     -0.516353
    149 H67        -4.0360   -1.6260    0.0410 hn        1 MOL      0.121663
    150 H68        -5.0740   -4.1260    0.9120 h1        1 MOL      0.170500
    151 H69        -7.0470   -4.2540   -0.3260 hc        1 MOL      0.043152
    152 H70        -5.7920   -4.1260   -1.5760 hc        1 MOL      0.043152
    153 H71        -6.4110   -1.8070   -1.9750 hc        1 MOL      0.037183
    154 H72        -7.6450   -1.9970   -0.6290 hc        1 MOL      0.037183
    155 H73        -8.7000   -2.2610   -2.8010 hc        1 MOL      0.082829
    156 H74        -8.6060   -3.8210   -1.9580 hc        1 MOL      0.082829
    157 H75        -6.5480   -4.1700   -3.4480 hx        1 MOL      0.086980
    158 H76        -6.8430   -2.6050   -4.3210 hx        1 MOL      0.086980
    159 H77        -7.7820   -4.5030   -5.4630 hn        1 MOL      0.351338
    160 H78        -8.7050   -4.8120   -4.1370 hn        1 MOL      0.351338
    161 H79        -8.9190   -3.3910   -4.9480 hn        1 MOL      0.351338
    162 N14        -5.9430   -1.2350    1.8680 n         1 MOL     -0.523154
    163 C49        -6.6960   -0.4110    2.8300 c3        1 MOL     -0.165098
    164 C50        -7.3570    0.7850    2.1210 c         1 MOL      0.655893
    165 O22        -6.8240    1.3200    1.2180 o         1 MOL     -0.529971
    166 C51        -5.8450    0.0020    3.9950 c3        1 MOL     -0.054568
    167 C52        -5.2940   -1.1630    4.8320 c3        1 MOL      0.024218
    168 C53        -3.8220   -1.3000    5.0810 c         1 MOL      0.499219
    169 O23        -3.3920   -2.4580    5.3360 o         1 MOL     -0.659861
    170 O24        -3.0900   -0.2750    5.0270 o         1 MOL     -0.659861
    171 H80        -4.9750   -0.9680    1.7410 hn        1 MOL      0.409549
    172 H81        -7.5100   -1.0260    3.2090 h1        1 MOL      0.086040
    173 H82        -6.3790    0.7170    4.6250 hc        1 MOL      0.012435
    174 H83        -4.9810    0.5350    3.5930 hc        1 MOL      0.012435
    175 H84        -5.6080   -2.0650    4.3220 hc        1 MOL      0.020899
    176 H85        -5.7900   -1.1790    5.8090 hc        1 MOL      0.020899
    177 N15        -8.5480    1.0440    2.5420 n         1 MOL     -0.361319
    178 C54        -9.4580    2.0470    1.9420 c3        1 MOL     -0.191536
    179 H86       -10.4000    2.0550    2.4890 h1        1 MOL      0.103358
    180 H87        -8.9980    3.0340    1.9960 h1        1 MOL      0.103358
    181 H88        -9.6450    1.7900    0.8990 h1        1 MOL      0.103358
    182 H89        -8.9110    0.4230    3.2520 hn        1 MOL      0.274932
    183 Ca1        -1.0330    1.4350    4.7670 Ca        1 MOL      1.607329
    184 O25         0.2350   -0.7390    5.4920 oh        1 MOL     -0.751434
    185 H90         0.2520   -1.6870    5.3370 ho        1 MOL      0.377349
    186 H91         0.2080   -0.6530    6.4480 ho        1 MOL      0.377349
    187 O26        -1.9410    2.7540    2.5510 oh        1 MOL     -0.751434
    188 H92        -2.1020    2.4910    1.6520 ho        1 MOL      0.377349
    189 H93        -1.5370    3.6150    2.4930 ho        1 MOL      0.377349
    190 O27         1.4740    2.0420    5.4890 oh        1 MOL     -0.751434
    191 H94         2.1300    1.4950    5.9380 ho        1 MOL      0.377349
    192 H95         1.8780    2.9160    5.4590 ho        1 MOL      0.377349
    193 O28        -3.1140    3.0850    5.4260 oh        1 MOL     -0.751434
    194 H96        -3.5280    2.6150    6.1530 ho        1 MOL      0.377349
    195 H97        -2.6180    3.7800    5.8540 ho        1 MOL      0.377349
@<TRIPOS>BOND
     1    1    2 1   
     2    1    4 1   
     3    1    5 1   
     4    1    6 1   
     5    2    3 2   
     6    2    7 1   
     7    7    8 1   
     8    7   15 1   
     9    8    9 1   
    10    8   11 1   
    11    8   16 1   
    12    9   10 2   
    13    9   19 1   
    14   11   12 1   
    15   11   17 1   
    16   11   18 1   
    17   12   13 1   
    18   12   14 1   
    19   19   20 1   
    20   19   28 1   
    21   20   21 1   
    22   20   23 1   
    23   20   29 1   
    24   21   22 2   
    25   21   41 1   
    26   23   24 1   
    27   23   30 1   
    28   23   31 1   
    29   24   25 1   
    30   24   32 1   
    31   24   33 1   
    32   25   26 1   
    33   25   34 1   
    34   25   35 1   
    35   26   27 1   
    36   26   36 1   
    37   26   37 1   
    38   27   38 1   
    39   27   39 1   
    40   27   40 1   
    41   41   42 1   
    42   41   49 1   
    43   42   43 1   
    44   42   45 1   
    45   42   50 1   
    46   43   44 2   
    47   43   53 1   
    48   45   46 1   
    49   45   51 1   
    50   45   52 1   
    51   46   47 1   
    52   46   48 1   
    53   53   54 1   
    54   53   57 1   
    55   54   55 1   
    56   54   58 1   
    57   54   59 1   
    58   55   56 2   
    59   55   60 1   
    60   60   61 1   
    61   60   68 1   
    62   61   62 1   
    63   61   64 1   
    64   61   69 1   
    65   62   63 2   
    66   62   72 1   
    67   64   65 1   
    68   64   70 1   
    69   64   71 1   
    70   65   66 1   
    71   65   67 1   
    72   72   73 1   
    73   72   76 1   
    74   73   74 1   
    75   73   77 1   
    76   73   78 1   
    77   74   75 2   
    78   74   79 1   
    79   79   80 1   
    80   79   86 1   
    81   80   81 1   
    82   80   83 1   
    83   80   87 1   
    84   81   82 2   
    85   81   93 1   
    86   83   84 1   
    87   83   85 1   
    88   83   88 1   
    89   84   90 1   
    90   84   91 1   
    91   84   92 1   
    92   85   89 1   
    93   93   94 1   
    94   93  101 1   
    95   94   95 1   
    96   94   97 1   
    97   94  102 1   
    98   95   96 2   
    99   95  112 1   
   100   97   98 1   
   101   97   99 1   
   102   97  103 1   
   103   98  100 1   
   104   98  104 1   
   105   98  105 1   
   106   99  106 1   
   107   99  107 1   
   108   99  108 1   
   109  100  109 1   
   110  100  110 1   
   111  100  111 1   
   112  112  113 1   
   113  112  119 1   
   114  113  114 1   
   115  113  116 1   
   116  113  120 1   
   117  114  115 2   
   118  114  126 1   
   119  116  117 1   
   120  116  118 1   
   121  116  121 1   
   122  117  123 1   
   123  117  124 1   
   124  117  125 1   
   125  118  122 1   
   126  126  127 1   
   127  126  133 1   
   128  127  128 1   
   129  127  130 1   
   130  127  134 1   
   131  128  129 2   
   132  128  140 1   
   133  130  131 1   
   134  130  132 1   
   135  130  135 1   
   136  131  137 1   
   137  131  138 1   
   138  131  139 1   
   139  132  136 1   
   140  140  141 1   
   141  140  149 1   
   142  141  142 1   
   143  141  144 1   
   144  141  150 1   
   145  142  143 2   
   146  142  162 1   
   147  144  145 1   
   148  144  151 1   
   149  144  152 1   
   150  145  146 1   
   151  145  153 1   
   152  145  154 1   
   153  146  147 1   
   154  146  155 1   
   155  146  156 1   
   156  147  148 1   
   157  147  157 1   
   158  147  158 1   
   159  148  159 1   
   160  148  160 1   
   161  148  161 1   
   162  162  163 1   
   163  162  171 1   
   164  163  164 1   
   165  163  166 1   
   166  163  172 1   
   167  164  165 2   
   168  164  177 1   
   169  166  167 1   
   170  166  173 1   
   171  166  174 1   
   172  167  168 1   
   173  167  175 1   
   174  167  176 1   
   175  168  169 1   
   176  168  170 1   
   177  177  178 1   
   178  177  182 1   
   179  178  179 1   
   180  178  180 1   
   181  178  181 1   
   182  184  185 1   
   183  184  186 1   
   184  187  188 1   
   185  187  189 1   
   186  190  191 1   
   187  190  192 1   
   188  193  194 1   
   189  193  195 1   
@<TRIPOS>SUBSTRUCTURE
     1 MOL         1 TEMP              0 ****  ****    0 ROOT
