@<TRIPOS>MOLECULE
MOL
  192   187     1     0     0
SMALL
resp


@<TRIPOS>ATOM
      1 C1          9.8900    0.7360    1.1640 c3        1 MOL     -0.449407
      2 C2          8.6090    0.3110    0.4560 c         1 MOL      0.741762
      3 O1          7.5490    0.3310    1.0890 o         1 MOL     -0.661715
      4 H1          9.7120    1.6630    1.7090 hc        1 MOL      0.112727
      5 H2         10.1950   -0.0430    1.8620 hc        1 MOL      0.112727
      6 H3         10.6780    0.8940    0.4270 hc        1 MOL      0.112727
      7 N1          8.7000   -0.0150   -0.8250 n         1 MOL     -0.576206
      8 C3          7.5070   -0.1420   -1.6490 c3        1 MOL      0.104605
      9 C4          6.8650   -1.5140   -1.5460 c         1 MOL      0.679987
     10 O2          6.5780   -2.1490   -2.5740 o         1 MOL     -0.484827
     11 C5          7.7590    0.3120   -3.0410 c3        1 MOL     -0.159757
     12 C6          9.0550   -0.2410   -3.6190 c         1 MOL      0.677614
     13 O3          8.9920   -1.2240   -4.4360 o         1 MOL     -0.649857
     14 O4         10.1200    0.2180   -3.2020 o         1 MOL     -0.649857
     15 H4          9.6140   -0.1000   -1.2410 hn        1 MOL      0.287851
     16 H5          6.7690    0.5180   -1.2150 h1        1 MOL      0.084844
     17 H6          7.7400    1.3990   -3.1380 hc        1 MOL      0.045017
     18 H7          6.9150    0.0600   -3.6790 hc        1 MOL      0.045017
     19 N2          6.7070   -2.0120   -0.3070 n         1 MOL     -0.495412
     20 C7          6.2820   -3.4540   -0.0690 c3        1 MOL     -0.013924
     21 C8          4.7370   -3.7230   -0.1890 c         1 MOL      0.407703
     22 O5          4.3940   -4.7910   -0.7160 o         1 MOL     -0.547570
     23 C9          6.9810   -4.1560    1.0940 c3        1 MOL     -0.138669
     24 C10         6.7440   -3.5280    2.4920 c3        1 MOL      0.086685
     25 C11         7.6520   -4.1300    3.5290 c3        1 MOL     -0.203662
     26 C12         9.1330   -3.6490    3.1950 c3        1 MOL      0.179116
     27 N3         10.1120   -3.9080    4.2820 n4        1 MOL     -0.286636
     28 H8          6.8930   -1.4860    0.5370 hn        1 MOL      0.199031
     29 H9          6.7490   -3.9650   -0.9100 h1        1 MOL      0.131251
     30 H10         8.0390   -4.0910    0.8490 hc        1 MOL      0.079525
     31 H11         6.7370   -5.2190    1.1870 hc        1 MOL      0.079525
     32 H12         5.7200   -3.7500    2.7960 hc        1 MOL      0.028268
     33 H13         6.8030   -2.4470    2.4740 hc        1 MOL      0.028268
     34 H14         7.7360   -5.1880    3.2960 hc        1 MOL      0.070368
     35 H15         7.3670   -3.8790    4.5450 hc        1 MOL      0.070368
     36 H16         9.1470   -2.5760    2.9810 hx        1 MOL      0.023787
     37 H17         9.4550   -4.2050    2.3200 hx        1 MOL      0.023787
     38 H18         9.7560   -3.4150    5.0850 hn        1 MOL      0.257885
     39 H19        10.1860   -4.8880    4.5230 hn        1 MOL      0.257885
     40 H20        10.9830   -3.4250    4.1050 hn        1 MOL      0.257885
     41 N4          3.8130   -2.8270   -0.0430 n         1 MOL     -0.231281
     42 C13         3.8980   -1.5470    0.6870 c3        1 MOL     -0.013758
     43 C14         3.9670   -0.3580   -0.2430 c         1 MOL     -0.008313
     44 O6          3.7980   -0.5270   -1.4470 o         1 MOL     -0.357791
     45 C15         2.7710   -1.3940    1.6930 c3        1 MOL      0.021154
     46 C16         1.4370   -2.0110    1.2350 c         1 MOL      0.512657
     47 O7          0.9870   -1.5910    0.1410 o         1 MOL     -0.631720
     48 O8          0.8850   -2.8990    1.9260 o         1 MOL     -0.631720
     49 H21         2.9280   -2.9440   -0.5120 hn        1 MOL      0.347222
     50 H22         4.8140   -1.4540    1.2740 h1        1 MOL      0.103596
     51 H23         2.5760   -0.3670    1.9800 hc        1 MOL     -0.029557
     52 H24         3.1390   -1.8620    2.6100 hc        1 MOL     -0.029557
     53 N5          4.3570    0.8110    0.2920 n         1 MOL     -0.093413
     54 C17         4.2830    2.0520   -0.4830 c3        1 MOL     -0.247952
     55 C18         2.9640    2.5060   -0.9490 c         1 MOL      0.765836
     56 O9          1.9000    2.0350   -0.5980 o         1 MOL     -0.637563
     57 H25         4.3970    0.9090    1.2940 hn        1 MOL      0.275241
     58 H26         4.8730    2.0010   -1.4000 h1        1 MOL      0.090179
     59 H27         4.6280    2.8550    0.1740 h1        1 MOL      0.090179
     60 N6          2.9640    3.5890   -1.7110 n         1 MOL     -0.459087
     61 C19         1.9170    4.4170   -2.2140 c3        1 MOL      0.034263
     62 C20         2.4270    5.8670   -2.3030 c         1 MOL      0.526216
     63 O10         3.6680    6.1100   -2.4240 o         1 MOL     -0.537693
     64 C21         1.4320    3.9470   -3.5290 c3        1 MOL     -0.330099
     65 C22         0.9960    2.4750   -3.5540 c         1 MOL      0.733663
     66 O11         1.5150    1.6770   -4.3440 o         1 MOL     -0.671183
     67 O12        -0.0140    2.1270   -2.9030 o         1 MOL     -0.671183
     68 H28         3.9040    3.9450   -1.8360 hn        1 MOL      0.265770
     69 H29         1.1480    4.2780   -1.4640 h1        1 MOL      0.090799
     70 H30         2.2780    3.8910   -4.2160 hc        1 MOL      0.104223
     71 H31         0.6640    4.6060   -3.9430 hc        1 MOL      0.104223
     72 N7          1.5780    6.8450   -2.1460 n         1 MOL     -0.454943
     73 C23         0.1330    6.6850   -2.0690 c3        1 MOL     -0.025480
     74 C24        -0.4910    6.1990   -0.7810 c         1 MOL      0.559611
     75 O13        -0.0940    6.5180    0.2890 o         1 MOL     -0.477891
     76 H32         1.9190    7.7890   -2.2470 hn        1 MOL      0.324832
     77 H33        -0.1540    6.1550   -2.9720 h1        1 MOL      0.083021
     78 H34        -0.3390    7.5920   -2.4430 h1        1 MOL      0.083021
     79 N8         -1.5790    5.4210   -0.8620 n         1 MOL     -0.550380
     80 C25        -2.2650    4.8770    0.2590 c3        1 MOL     -0.042219
     81 C26        -1.5410    3.6690    0.9870 c         1 MOL      0.869056
     82 O14        -1.0850    2.7330    0.3090 o         1 MOL     -0.753049
     83 C27        -3.7550    4.5780    0.0950 c3        1 MOL      0.478965
     84 C28        -4.4720    4.3000    1.3960 c3        1 MOL     -0.351999
     85 O15        -3.9520    3.5320   -0.7250 oh        1 MOL     -0.622805
     86 H35        -1.9230    5.3080   -1.8070 hn        1 MOL      0.254820
     87 H36        -2.2370    5.7140    0.9570 h1        1 MOL      0.047921
     88 H37        -4.2570    5.4840   -0.2670 h1        1 MOL     -0.022253
     89 H38        -3.3030    3.7010   -1.4170 ho        1 MOL      0.403637
     90 H39        -4.3050    3.2750    1.7170 hc        1 MOL      0.078181
     91 H40        -4.1620    5.0250    2.1520 hc        1 MOL      0.078181
     92 H41        -5.5170    4.4370    1.1370 hc        1 MOL      0.078181
     93 N9         -1.3660    3.5930    2.3410 n         1 MOL     -0.551609
     94 C29        -0.6210    2.6070    3.0920 c3        1 MOL     -0.099049
     95 C30        -1.2070    1.1730    2.8390 c         1 MOL      0.634697
     96 O16        -0.7780    0.5270    1.9070 o         1 MOL     -0.544465
     97 C31         0.9180    2.6430    2.8780 c3        1 MOL      0.240722
     98 C32         1.3910    4.1130    3.1190 c3        1 MOL      0.053754
     99 C33         1.6070    1.6630    3.8440 c3        1 MOL     -0.709087
    100 C34         2.5850    4.4080    2.2540 c3        1 MOL     -0.069044
    101 H42        -1.7770    4.2490    2.9980 hn        1 MOL      0.298932
    102 H43        -0.7380    2.8040    4.1540 h1        1 MOL      0.046656
    103 H44         1.1540    2.3700    1.8510 hc        1 MOL      0.057189
    104 H45         1.7270    4.1890    4.1500 hc        1 MOL     -0.022640
    105 H46         0.6320    4.8460    2.8240 hc        1 MOL     -0.022640
    106 H47         1.3010    1.9040    4.8660 hc        1 MOL      0.186833
    107 H48         1.3460    0.6050    3.8070 hc        1 MOL      0.186833
    108 H49         2.6980    1.7350    3.7790 hc        1 MOL      0.186833
    109 H50         2.9550    5.4140    2.4370 hc        1 MOL      0.016295
    110 H51         3.3230    3.6070    2.3360 hc        1 MOL      0.016295
    111 H52         2.2410    4.3720    1.2140 hc        1 MOL      0.016295
    112 N10        -1.9970    0.6490    3.7720 n         1 MOL     -0.534244
    113 C35        -2.6710   -0.6810    3.6630 c3        1 MOL     -0.158644
    114 C36        -3.8670   -0.7790    2.8020 c         1 MOL      0.555121
    115 O17        -4.2020   -1.8450    2.3330 o         1 MOL     -0.520503
    116 C37        -2.9420   -1.3170    5.0180 c3        1 MOL      0.486983
    117 C38        -4.1620   -0.8550    5.7980 c3        1 MOL     -0.539093
    118 O18        -1.8520   -1.1320    5.8590 oh        1 MOL     -0.602049
    119 H53        -2.4080    1.3050    4.4280 hn        1 MOL      0.310402
    120 H54        -1.9240   -1.3510    3.2230 h1        1 MOL      0.151562
    121 H55        -3.0580   -2.3790    4.7960 h1        1 MOL     -0.020885
    122 H56        -1.1040   -1.4930    5.3870 ho        1 MOL      0.385815
    123 H57        -4.2330   -1.5770    6.6120 hc        1 MOL      0.143807
    124 H58        -3.8780    0.0520    6.3180 hc        1 MOL      0.143807
    125 H59        -4.9710   -0.7790    5.0730 hc        1 MOL      0.143807
    126 N11        -4.6110    0.2860    2.5540 n         1 MOL     -0.189873
    127 C39        -6.0650    0.2890    2.1490 c3        1 MOL     -0.243721
    128 C40        -6.1650   -0.3250    0.7820 c         1 MOL      0.382724
    129 O19        -5.6720    0.1190   -0.2250 o         1 MOL     -0.431359
    130 C41        -6.7370    1.6640    2.1230 c3        1 MOL      0.368223
    131 C42        -8.2800    1.6510    2.1440 c3        1 MOL     -0.383388
    132 O20        -6.4130    2.5130    3.2250 oh        1 MOL     -0.590512
    133 H60        -4.3170    1.1120    3.0710 hn        1 MOL      0.149151
    134 H61        -6.6140   -0.3070    2.8720 h1        1 MOL      0.145224
    135 H62        -6.3950    2.2300    1.2610 h1        1 MOL      0.047721
    136 H63        -5.5170    2.3030    3.5070 ho        1 MOL      0.380862
    137 H64        -8.5770    1.1270    3.0440 hc        1 MOL      0.117051
    138 H65        -8.7180    2.6490    2.0750 hc        1 MOL      0.117051
    139 H66        -8.7530    1.0700    1.3460 hc        1 MOL      0.117051
    140 N12        -6.9420   -1.4770    0.6720 n         1 MOL     -0.337883
    141 C43        -7.0950   -2.2760   -0.5360 c3        1 MOL      0.070154
    142 C44        -5.7950   -2.5440   -1.2370 c         1 MOL      0.510161
    143 O21        -5.6530   -2.1940   -2.4160 o         1 MOL     -0.536153
    144 C45        -8.1660   -1.6920   -1.4090 c3        1 MOL     -0.188154
    145 C46        -9.6190   -1.5530   -0.8600 c3        1 MOL      0.215386
    146 C47       -10.5520   -0.7040   -1.6940 c3        1 MOL     -0.022710
    147 C48       -10.9670   -1.3630   -3.0170 c3        1 MOL     -0.085045
    148 N13       -12.2600   -0.7890   -3.4840 n4        1 MOL     -0.008860
    149 H67        -7.2490   -1.8510    1.5590 hn        1 MOL      0.232591
    150 H68        -7.4980   -3.2340   -0.2130 h1        1 MOL      0.050820
    151 H69        -8.2260   -2.3460   -2.2730 hc        1 MOL      0.076217
    152 H70        -7.8600   -0.7300   -1.8340 hc        1 MOL      0.076217
    153 H71        -9.6070   -1.0470    0.1040 hc        1 MOL     -0.053863
    154 H72       -10.0490   -2.5380   -0.7090 hc        1 MOL     -0.053863
    155 H73       -10.1160    0.2910   -1.8380 hc        1 MOL      0.017577
    156 H74       -11.3800   -0.4770   -1.0190 hc        1 MOL      0.017577
    157 H75       -11.0670   -2.4280   -2.7970 hx        1 MOL      0.106160
    158 H76       -10.1300   -1.1490   -3.6860 hx        1 MOL      0.106160
    159 H77       -12.2200    0.1940   -3.7280 hn        1 MOL      0.154677
    160 H78       -12.6120   -1.2280   -4.3260 hn        1 MOL      0.154677
    161 H79       -13.0440   -0.7620   -2.8470 hn        1 MOL      0.154677
    162 N14        -4.7490   -3.0660   -0.5670 n         1 MOL     -0.474052
    163 C49        -3.4120   -3.3870   -1.1140 c3        1 MOL      0.426250
    164 C50        -2.3140   -2.8690   -0.2200 c         1 MOL      0.265390
    165 O22        -1.7540   -1.7740   -0.4340 o         1 MOL     -0.553563
    166 C51        -3.4710   -4.8480   -1.6080 c3        1 MOL     -0.097698
    167 C52        -4.1230   -4.9440   -2.9870 c3        1 MOL     -0.378251
    168 C53        -4.2250   -6.3960   -3.4860 c         1 MOL      0.765635
    169 O23        -3.2660   -7.0310   -3.9210 o         1 MOL     -0.636474
    170 O24        -5.3170   -7.0080   -3.4160 o         1 MOL     -0.636474
    171 H80        -4.9950   -3.2760    0.3910 hn        1 MOL      0.255241
    172 H81        -3.2870   -2.7970   -2.0180 h1        1 MOL      0.009364
    173 H82        -4.0390   -5.4550   -0.9080 hc        1 MOL      0.061767
    174 H83        -2.4650   -5.2690   -1.6920 hc        1 MOL      0.061767
    175 H84        -3.5430   -4.4080   -3.7340 hc        1 MOL      0.088711
    176 H85        -5.0830   -4.4340   -2.9590 hc        1 MOL      0.088711
    177 N15        -1.7420   -3.6000    0.7900 n         1 MOL     -0.276192
    178 C54        -2.0580   -4.9070    1.3460 c3        1 MOL     -0.058498
    179 H86        -1.1970   -5.5660    1.2360 h1        1 MOL      0.048768
    180 H87        -2.3020   -4.8030    2.4030 h1        1 MOL      0.048768
    181 H88        -2.9100   -5.3320    0.8160 h1        1 MOL      0.048768
    182 H89        -1.0910   -2.9970    1.2690 hn        1 MOL      0.320071
    183 Ca1        -0.3100    0.3460   -0.8150 Ca        1 MOL      1.812541
    184 O25        -1.9460   -0.4360   -3.1210 oh        1 MOL     -0.879742
    185 H90        -2.8610   -0.1600   -3.2080 ho        1 MOL      0.424465
    186 H91        -1.8390   -1.1190   -3.7830 ho        1 MOL      0.424465
    187 O26        -2.9600    0.8700   -0.4900 oh        1 MOL     -0.879742
    188 H92        -3.6410    0.2080   -0.3950 ho        1 MOL      0.424465
    189 H93        -3.4210    1.7060   -0.3490 ho        1 MOL      0.424465
    190 O27         1.0930   -0.5470   -2.8030 oh        1 MOL     -0.879742
    191 H94         1.1720    0.1400   -3.4660 ho        1 MOL      0.424465
    192 H95         1.6450   -1.2580   -3.1310 ho        1 MOL      0.424465
@<TRIPOS>BOND
     1    1    2 1   
     2    1    4 1   
     3    1    5 1   
     4    1    6 1   
     5    2    3 2   
     6    2    7 1   
     7    7    8 1   
     8    7   15 1   
     9    8    9 1   
    10    8   11 1   
    11    8   16 1   
    12    9   10 2   
    13    9   19 1   
    14   11   12 1   
    15   11   17 1   
    16   11   18 1   
    17   12   13 1   
    18   12   14 1   
    19   19   20 1   
    20   19   28 1   
    21   20   21 1   
    22   20   23 1   
    23   20   29 1   
    24   21   22 2   
    25   21   41 1   
    26   23   24 1   
    27   23   30 1   
    28   23   31 1   
    29   24   25 1   
    30   24   32 1   
    31   24   33 1   
    32   25   26 1   
    33   25   34 1   
    34   25   35 1   
    35   26   27 1   
    36   26   36 1   
    37   26   37 1   
    38   27   38 1   
    39   27   39 1   
    40   27   40 1   
    41   41   42 1   
    42   41   49 1   
    43   42   43 1   
    44   42   45 1   
    45   42   50 1   
    46   43   44 2   
    47   43   53 1   
    48   45   46 1   
    49   45   51 1   
    50   45   52 1   
    51   46   47 1   
    52   46   48 1   
    53   53   54 1   
    54   53   57 1   
    55   54   55 1   
    56   54   58 1   
    57   54   59 1   
    58   55   56 2   
    59   55   60 1   
    60   60   61 1   
    61   60   68 1   
    62   61   62 1   
    63   61   64 1   
    64   61   69 1   
    65   62   63 2   
    66   62   72 1   
    67   64   65 1   
    68   64   70 1   
    69   64   71 1   
    70   65   66 1   
    71   65   67 1   
    72   72   73 1   
    73   72   76 1   
    74   73   74 1   
    75   73   77 1   
    76   73   78 1   
    77   74   75 2   
    78   74   79 1   
    79   79   80 1   
    80   79   86 1   
    81   80   81 1   
    82   80   83 1   
    83   80   87 1   
    84   81   82 2   
    85   81   93 1   
    86   83   84 1   
    87   83   85 1   
    88   83   88 1   
    89   84   90 1   
    90   84   91 1   
    91   84   92 1   
    92   85   89 1   
    93   93   94 1   
    94   93  101 1   
    95   94   95 1   
    96   94   97 1   
    97   94  102 1   
    98   95   96 2   
    99   95  112 1   
   100   97   98 1   
   101   97   99 1   
   102   97  103 1   
   103   98  100 1   
   104   98  104 1   
   105   98  105 1   
   106   99  106 1   
   107   99  107 1   
   108   99  108 1   
   109  100  109 1   
   110  100  110 1   
   111  100  111 1   
   112  112  113 1   
   113  112  119 1   
   114  113  114 1   
   115  113  116 1   
   116  113  120 1   
   117  114  115 2   
   118  114  126 1   
   119  116  117 1   
   120  116  118 1   
   121  116  121 1   
   122  117  123 1   
   123  117  124 1   
   124  117  125 1   
   125  118  122 1   
   126  126  127 1   
   127  126  133 1   
   128  127  128 1   
   129  127  130 1   
   130  127  134 1   
   131  128  129 2   
   132  128  140 1   
   133  130  131 1   
   134  130  132 1   
   135  130  135 1   
   136  131  137 1   
   137  131  138 1   
   138  131  139 1   
   139  132  136 1   
   140  140  141 1   
   141  140  149 1   
   142  141  142 1   
   143  141  144 1   
   144  141  150 1   
   145  142  143 2   
   146  142  162 1   
   147  144  145 1   
   148  144  151 1   
   149  144  152 1   
   150  145  146 1   
   151  145  153 1   
   152  145  154 1   
   153  146  147 1   
   154  146  155 1   
   155  146  156 1   
   156  147  148 1   
   157  147  157 1   
   158  147  158 1   
   159  148  159 1   
   160  148  160 1   
   161  148  161 1   
   162  162  163 1   
   163  162  171 1   
   164  163  164 1   
   165  163  166 1   
   166  163  172 1   
   167  164  165 2   
   168  164  177 1   
   169  166  167 1   
   170  166  173 1   
   171  166  174 1   
   172  167  168 1   
   173  167  175 1   
   174  167  176 1   
   175  168  169 1   
   176  168  170 1   
   177  177  178 1   
   178  177  182 1   
   179  178  179 1   
   180  178  180 1   
   181  178  181 1   
   182  184  185 1   
   183  184  186 1   
   184  187  188 1   
   185  187  189 1   
   186  190  191 1   
   187  190  192 1   
@<TRIPOS>SUBSTRUCTURE
     1 MOL         1 TEMP              0 ****  ****    0 ROOT
