@<TRIPOS>MOLECULE
MOL
  181   177     1     0     0
SMALL
resp


@<TRIPOS>ATOM
      1 C1          1.0840    6.8710   -1.3550 c3        1 MOL     -0.432589
      2 C2          2.4540    6.4070   -0.8990 c         1 MOL      0.687916
      3 O1          2.9670    6.8130    0.1790 o         1 MOL     -0.584254
      4 H1          0.3320    6.5440   -0.6370 hc        1 MOL      0.106633
      5 H2          1.0720    7.9590   -1.4220 hc        1 MOL      0.106633
      6 H3          0.8620    6.4450   -2.3330 hc        1 MOL      0.106633
      7 N1          3.1380    5.6770   -1.7700 n         1 MOL     -0.524047
      8 C3          4.4610    5.1890   -1.4400 c3        1 MOL      0.115318
      9 C4          4.4390    4.2120   -0.3310 c         1 MOL      0.617634
     10 O2          3.5490    3.2840   -0.4360 o         1 MOL     -0.603378
     11 C5          5.0550    4.7020   -2.8130 c3        1 MOL     -0.138928
     12 C6          6.5320    4.5300   -2.7960 c         1 MOL      0.636344
     13 O3          6.8600    3.3190   -2.5710 o         1 MOL     -0.720515
     14 O4          7.2890    5.5450   -2.8980 o         1 MOL     -0.720515
     15 H4          2.7410    5.4210   -2.6610 hn        1 MOL      0.284168
     16 H5          4.9770    6.0970   -1.1300 h1        1 MOL      0.046820
     17 H6          4.9520    5.5260   -3.5140 hc        1 MOL      0.019375
     18 H7          4.4980    3.8150   -3.1050 hc        1 MOL      0.019375
     19 N2          5.2360    4.3650    0.7290 n         1 MOL     -0.652669
     20 C7          5.1530    3.4710    1.9260 c3        1 MOL      0.569954
     21 C8          3.7210    3.4030    2.5750 c         1 MOL      0.300908
     22 O5          3.0090    4.3910    2.5800 o         1 MOL     -0.513929
     23 C9          6.2050    3.9790    2.9070 c3        1 MOL     -0.448712
     24 H8          5.9290    5.1040    0.6700 hn        1 MOL      0.347074
     25 H9          5.4290    2.4780    1.5500 h1        1 MOL      0.036691
     26 H10         7.0520    4.4040    2.3780 hc        1 MOL      0.104000
     27 H11         5.8230    4.8580    3.4460 hc        1 MOL      0.104000
     28 H12         6.5120    3.2160    3.6270 hc        1 MOL      0.104000
     29 N3          3.3650    2.3550    3.2830 n         1 MOL     -0.413975
     30 C10         4.1640    1.0830    3.5010 c3        1 MOL      0.210027
     31 C11         4.3690    0.1490    2.2650 c         1 MOL      0.045728
     32 O6          3.5330    0.2550    1.3430 o         1 MOL     -0.301152
     33 C12         3.5970    0.3360    4.7260 c3        1 MOL     -0.367377
     34 C13         2.0480    0.2340    4.7320 c         1 MOL      0.667261
     35 O7          1.3990    0.2260    3.6940 o         1 MOL     -0.664824
     36 O8          1.4910    0.3080    5.8660 o         1 MOL     -0.664824
     37 H13         2.4410    2.4020    3.6810 hn        1 MOL      0.353119
     38 H14         5.1530    1.4740    3.7120 h1        1 MOL      0.019252
     39 H15         3.8540    0.9700    5.5690 hc        1 MOL      0.083818
     40 H16         4.0950   -0.6180    4.8970 hc        1 MOL      0.083818
     41 N4          5.2850   -0.7910    2.3530 n         1 MOL     -0.259759
     42 C14         5.6970   -1.4590    1.0800 c3        1 MOL      0.055632
     43 C15         6.7290   -0.6120    0.2950 c         1 MOL      0.674702
     44 O9          7.0770    0.4330    0.7660 o         1 MOL     -0.585777
     45 H17         5.8300   -0.9520    3.1860 hn        1 MOL      0.270456
     46 H18         4.7500   -1.6030    0.5570 h1        1 MOL      0.020458
     47 H19         6.1130   -2.4510    1.2110 h1        1 MOL      0.020458
     48 N5          7.2440   -1.0190   -0.8460 n         1 MOL     -0.463011
     49 C16         7.2250   -2.3540   -1.3890 c3        1 MOL      0.008169
     50 C17         6.1970   -2.5280   -2.5580 c         1 MOL      0.549535
     51 O10         6.3660   -1.8290   -3.6230 o         1 MOL     -0.505848
     52 C18         8.7390   -2.7360   -1.7470 c3        1 MOL     -0.285962
     53 C19         9.4810   -3.0430   -0.4590 c         1 MOL      0.700941
     54 N6         10.4930   -2.3260   -0.1170 n         1 MOL     -0.800214
     55 O11         8.9610   -3.7240    0.4000 o         1 MOL     -0.568664
     56 H20         7.8090   -0.3320   -1.3090 hn        1 MOL      0.344567
     57 H21         6.9730   -3.1690   -0.7060 h1        1 MOL      0.047627
     58 H22         9.2180   -1.9460   -2.3320 hc        1 MOL      0.092933
     59 H23         8.7840   -3.6410   -2.3580 hc        1 MOL      0.092933
     60 H24        10.9340   -1.5890   -0.6580 hn        1 MOL      0.369335
     61 H25        10.8280   -2.3260    0.8430 hn        1 MOL      0.369335
     62 N7          5.2170   -3.4920   -2.4370 n         1 MOL     -0.431327
     63 C20         4.0480   -3.6130   -3.4480 c3        1 MOL     -0.201150
     64 C21         2.7290   -4.0260   -2.8090 c         1 MOL      0.713944
     65 O12         1.7220   -3.8250   -3.4990 o         1 MOL     -0.603531
     66 H26         5.3420   -4.2190   -1.7480 hn        1 MOL      0.268232
     67 H27         4.3450   -4.4720   -4.0590 h1        1 MOL      0.136369
     68 H28         3.9790   -2.7340   -4.0910 h1        1 MOL      0.136369
     69 N8          2.7380   -4.5070   -1.5550 n         1 MOL     -0.595901
     70 C22         1.4910   -4.8940   -0.9660 c3        1 MOL     -0.026391
     71 C23         0.4240   -3.7470   -0.9610 c         1 MOL      0.708744
     72 O13         0.6110   -2.7150   -0.3160 o         1 MOL     -0.649716
     73 C24         1.7200   -5.2770    0.5140 c3        1 MOL      0.056906
     74 C25         0.4430   -5.7440    1.3170 c3        1 MOL     -0.250804
     75 O14         2.4780   -6.4810    0.5650 oh        1 MOL     -0.605460
     76 H29         3.5630   -4.7210   -1.0190 hn        1 MOL      0.376303
     77 H30         1.0120   -5.7090   -1.5240 h1        1 MOL      0.083589
     78 H31         2.2590   -4.4970    1.0360 h1        1 MOL      0.142531
     79 H32         1.8840   -7.2380    0.6450 ho        1 MOL      0.383248
     80 H33        -0.2990   -6.1920    0.6470 hc        1 MOL      0.088065
     81 H34         0.6860   -6.4410    2.1170 hc        1 MOL      0.088065
     82 H35        -0.1170   -4.9300    1.7640 hc        1 MOL      0.088065
     83 N9         -0.7150   -4.0350   -1.5770 n         1 MOL     -0.349672
     84 C26        -2.0120   -3.3580   -1.5090 c3        1 MOL     -0.184234
     85 C27        -2.6130   -3.6230   -0.1230 c         1 MOL      0.253222
     86 O15        -2.6550   -4.7790    0.4120 o         1 MOL     -0.525606
     87 C28        -2.9400   -3.7920   -2.6040 c3        1 MOL      0.234250
     88 C29        -4.3140   -3.1420   -2.3940 c3        1 MOL      0.070781
     89 C30        -2.3760   -3.3910   -3.9470 c3        1 MOL     -0.418938
     90 C31        -5.2910   -3.5680   -3.4990 c3        1 MOL     -0.302844
     91 H36        -0.7220   -4.9040   -2.1120 hn        1 MOL      0.235782
     92 H37        -1.8610   -2.2890   -1.6500 h1        1 MOL      0.256247
     93 H38        -3.0070   -4.8720   -2.4850 hc        1 MOL     -0.004758
     94 H39        -4.1100   -2.0720   -2.4140 hc        1 MOL      0.022908
     95 H40        -4.7820   -3.3980   -1.4360 hc        1 MOL      0.022908
     96 H41        -2.3350   -2.3050   -3.9850 hc        1 MOL      0.109311
     97 H42        -1.3190   -3.6360   -4.0190 hc        1 MOL      0.109311
     98 H43        -2.7990   -3.9770   -4.7630 hc        1 MOL      0.109311
     99 H44        -5.2920   -4.6610   -3.5430 hc        1 MOL      0.061144
    100 H45        -6.3200   -3.2940   -3.2600 hc        1 MOL      0.061144
    101 H46        -4.9880   -3.0880   -4.4280 hc        1 MOL      0.061144
    102 N10        -3.1120   -2.5700    0.5350 n         1 MOL      0.251560
    103 C32        -3.7720   -2.6020    1.8720 c3        1 MOL     -0.173445
    104 C33        -5.2150   -2.0190    1.8230 c         1 MOL      0.459287
    105 O16        -5.9990   -2.4520    2.6600 o         1 MOL     -0.554288
    106 C34        -2.9850   -1.7910    2.9100 c3        1 MOL      0.063846
    107 C35        -1.5940   -2.3770    3.1870 c         1 MOL      0.698026
    108 O17        -1.5930   -3.3220    3.9300 o         1 MOL     -0.695106
    109 O18        -0.5940   -1.8300    2.6750 o         1 MOL     -0.695106
    110 H47        -2.7720   -1.7100    0.1150 hn        1 MOL     -0.159434
    111 H48        -3.9230   -3.6360    2.2000 h1        1 MOL      0.125073
    112 H49        -3.4270   -1.6720    3.8960 hc        1 MOL      0.011791
    113 H50        -2.8420   -0.7680    2.5640 hc        1 MOL      0.011791
    114 N11        -5.5850   -1.1240    0.9540 n         1 MOL     -0.407029
    115 C36        -6.7690   -0.1980    1.0330 c3        1 MOL      0.426647
    116 C37        -6.4210    1.1610    0.3790 c         1 MOL      0.204134
    117 O19        -7.0150    1.5680   -0.7020 o         1 MOL     -0.443907
    118 C38        -7.9340   -0.8590    0.3370 c3        1 MOL     -0.375948
    119 C39        -9.2870   -0.3290    0.6650 ca        1 MOL      0.245668
    120 C40        -9.7510   -0.3010    1.9800 ca        1 MOL     -0.239116
    121 C41       -10.1540    0.0410   -0.4160 ca        1 MOL     -0.239116
    122 C42       -11.0390    0.1730    2.2770 ca        1 MOL     -0.071942
    123 C43       -11.3860    0.5800   -0.1050 ca        1 MOL     -0.071942
    124 C44       -11.8640    0.5990    1.2330 ca        1 MOL     -0.171542
    125 H51        -4.8460   -0.7800    0.3540 hn        1 MOL      0.113143
    126 H52        -7.0940   -0.0370    2.0570 h1        1 MOL     -0.006749
    127 H53        -7.9270   -1.8860    0.6870 hc        1 MOL      0.115148
    128 H54        -7.7290   -0.9180   -0.7250 hc        1 MOL      0.115148
    129 H55        -9.0960   -0.7330    2.7150 ha        1 MOL      0.144507
    130 H56        -9.7720    0.0380   -1.4260 ha        1 MOL      0.144507
    131 H57       -11.4190    0.1900    3.2840 ha        1 MOL      0.096506
    132 H58       -11.9820    0.9660   -0.9250 ha        1 MOL      0.096506
    133 H59       -12.9170    0.8000    1.3350 ha        1 MOL      0.099654
    134 N12        -5.4360    1.8950    1.0160 n         1 MOL     -0.090375
    135 C45        -5.1460    3.3080    0.7100 c3        1 MOL      0.005550
    136 C46        -4.7940    3.4300   -0.7870 c         1 MOL      0.159392
    137 O20        -4.8450    4.5140   -1.4150 o         1 MOL     -0.498663
    138 C47        -3.9430    3.6310    1.5010 c3        1 MOL      0.104675
    139 C48        -4.2300    2.9020    2.8130 c3        1 MOL     -0.084894
    140 C49        -4.7570    1.5980    2.2940 c3        1 MOL     -0.179413
    141 H60        -6.0260    3.9210    0.9290 h1        1 MOL      0.096382
    142 H61        -3.0190    3.2580    1.0740 hc        1 MOL     -0.001227
    143 H62        -3.8620    4.6870    1.7660 hc        1 MOL     -0.001227
    144 H63        -3.3710    2.8080    3.4740 hc        1 MOL      0.056759
    145 H64        -4.9990    3.5030    3.3060 hc        1 MOL      0.056759
    146 H65        -3.9850    0.8360    2.2150 h1        1 MOL      0.098076
    147 H66        -5.4130    1.1830    3.0590 h1        1 MOL      0.098076
    148 N13        -4.3170    2.3440   -1.3760 n         1 MOL      0.023398
    149 C50        -3.9910    2.3060   -2.8160 c3        1 MOL     -0.281388
    150 C51        -5.1350    2.5560   -3.7570 c         1 MOL      0.465435
    151 O21        -4.9220    3.2560   -4.8030 o         1 MOL     -0.546595
    152 C52        -3.2640    1.0020   -3.1520 c3        1 MOL      0.078711
    153 C53        -1.9060    0.7460   -2.3930 c3        1 MOL     -0.421488
    154 C54        -2.1290    0.1490   -0.9600 c         1 MOL      0.350979
    155 O22        -1.1010   -0.1320   -0.2940 o         1 MOL     -0.544834
    156 O23        -3.3290    0.0950   -0.4570 o         1 MOL     -0.544834
    157 H67        -4.2530    1.5150   -0.8050 hn        1 MOL      0.368029
    158 H68        -3.2980    3.1460   -2.9090 h1        1 MOL      0.143746
    159 H69        -3.0390    1.0270   -4.2230 hc        1 MOL      0.009322
    160 H70        -3.9550    0.1770   -2.9910 hc        1 MOL      0.009322
    161 H71        -1.5000    1.7440   -2.3040 hc        1 MOL      0.166083
    162 H72        -1.3180    0.0600   -3.0040 hc        1 MOL      0.166083
    163 N14        -6.3490    2.0400   -3.4380 n         1 MOL     -0.097741
    164 C55        -7.5400    2.1770   -4.1870 c3        1 MOL     -0.268118
    165 H73        -8.3950    1.9310   -3.5580 h1        1 MOL      0.093293
    166 H74        -7.6330    3.2050   -4.5400 h1        1 MOL      0.093293
    167 H75        -7.5130    1.5000   -5.0410 h1        1 MOL      0.093293
    168 H76        -6.4710    1.5330   -2.5720 hn        1 MOL      0.172539
    169 Ca1         1.0060   -0.3740    1.1480 Ca        1 MOL      1.736088
    170 O24        -1.0790    1.4370    2.0010 oh        1 MOL     -0.847820
    171 H77        -1.4950    2.2960    2.0850 ho        1 MOL      0.411038
    172 H78        -1.3680    1.1070    1.1440 ho        1 MOL      0.411038
    173 O25         2.2400   -2.3590    2.5510 oh        1 MOL     -0.847820
    174 H79         2.7480   -2.9670    3.0960 ho        1 MOL      0.411038
    175 H80         1.3390   -2.4400    2.8730 ho        1 MOL      0.411038
    176 O26         2.3400   -0.3450   -1.4160 oh        1 MOL     -0.847820
    177 H81         2.0090   -0.6780   -2.2410 ho        1 MOL      0.411038
    178 H82         3.1470    0.1140   -1.6440 ho        1 MOL      0.411038
    179 O27         1.2350    2.2490    0.5770 oh        1 MOL     -0.847820
    180 H83         1.8520    2.5840   -0.0770 ho        1 MOL      0.411038
    181 H84         1.0490    3.0070    1.1340 ho        1 MOL      0.411038
@<TRIPOS>BOND
     1    1    2 1   
     2    1    4 1   
     3    1    5 1   
     4    1    6 1   
     5    2    3 2   
     6    2    7 1   
     7    7    8 1   
     8    7   15 1   
     9    8    9 1   
    10    8   11 1   
    11    8   16 1   
    12    9   10 2   
    13    9   19 1   
    14   11   12 1   
    15   11   17 1   
    16   11   18 1   
    17   12   13 1   
    18   12   14 1   
    19   19   20 1   
    20   19   24 1   
    21   20   21 1   
    22   20   23 1   
    23   20   25 1   
    24   21   22 2   
    25   21   29 1   
    26   23   26 1   
    27   23   27 1   
    28   23   28 1   
    29   29   30 1   
    30   29   37 1   
    31   30   31 1   
    32   30   33 1   
    33   30   38 1   
    34   31   32 2   
    35   31   41 1   
    36   33   34 1   
    37   33   39 1   
    38   33   40 1   
    39   34   35 1   
    40   34   36 1   
    41   41   42 1   
    42   41   45 1   
    43   42   43 1   
    44   42   46 1   
    45   42   47 1   
    46   43   44 2   
    47   43   48 1   
    48   48   49 1   
    49   48   56 1   
    50   49   50 1   
    51   49   52 1   
    52   49   57 1   
    53   50   51 2   
    54   50   62 1   
    55   52   53 1   
    56   52   58 1   
    57   52   59 1   
    58   53   54 1   
    59   53   55 2   
    60   54   60 1   
    61   54   61 1   
    62   62   63 1   
    63   62   66 1   
    64   63   64 1   
    65   63   67 1   
    66   63   68 1   
    67   64   65 2   
    68   64   69 1   
    69   69   70 1   
    70   69   76 1   
    71   70   71 1   
    72   70   73 1   
    73   70   77 1   
    74   71   72 2   
    75   71   83 1   
    76   73   74 1   
    77   73   75 1   
    78   73   78 1   
    79   74   80 1   
    80   74   81 1   
    81   74   82 1   
    82   75   79 1   
    83   83   84 1   
    84   83   91 1   
    85   84   85 1   
    86   84   87 1   
    87   84   92 1   
    88   85   86 2   
    89   85  102 1   
    90   87   88 1   
    91   87   89 1   
    92   87   93 1   
    93   88   90 1   
    94   88   94 1   
    95   88   95 1   
    96   89   96 1   
    97   89   97 1   
    98   89   98 1   
    99   90   99 1   
   100   90  100 1   
   101   90  101 1   
   102  102  103 1   
   103  102  110 1   
   104  103  104 1   
   105  103  106 1   
   106  103  111 1   
   107  104  105 2   
   108  104  114 1   
   109  106  107 1   
   110  106  112 1   
   111  106  113 1   
   112  107  108 1   
   113  107  109 1   
   114  114  115 1   
   115  114  125 1   
   116  115  116 1   
   117  115  118 1   
   118  115  126 1   
   119  116  117 2   
   120  116  134 1   
   121  118  119 1   
   122  118  127 1   
   123  118  128 1   
   124  119  120 ar  
   125  119  121 ar  
   126  120  122 ar  
   127  120  129 1   
   128  121  123 ar  
   129  121  130 1   
   130  122  124 ar  
   131  122  131 1   
   132  123  124 ar  
   133  123  132 1   
   134  124  133 1   
   135  134  135 1   
   136  134  140 1   
   137  135  136 1   
   138  135  138 1   
   139  135  141 1   
   140  136  137 2   
   141  136  148 1   
   142  138  139 1   
   143  138  142 1   
   144  138  143 1   
   145  139  140 1   
   146  139  144 1   
   147  139  145 1   
   148  140  146 1   
   149  140  147 1   
   150  148  149 1   
   151  148  157 1   
   152  149  150 1   
   153  149  152 1   
   154  149  158 1   
   155  150  151 2   
   156  150  163 1   
   157  152  153 1   
   158  152  159 1   
   159  152  160 1   
   160  153  154 1   
   161  153  161 1   
   162  153  162 1   
   163  154  155 1   
   164  154  156 1   
   165  163  164 1   
   166  163  168 1   
   167  164  165 1   
   168  164  166 1   
   169  164  167 1   
   170  170  171 1   
   171  170  172 1   
   172  173  174 1   
   173  173  175 1   
   174  176  177 1   
   175  176  178 1   
   176  179  180 1   
   177  179  181 1   
@<TRIPOS>SUBSTRUCTURE
     1 MOL         1 TEMP              0 ****  ****    0 ROOT
