@<TRIPOS>MOLECULE
MOL
  204   195     1     0     0
SMALL
resp


@<TRIPOS>ATOM
      1 C1         -3.4440   -3.8540    2.6450 c3        1 MOL     -0.491744
      2 C2         -2.5840   -4.2690    1.4430 c         1 MOL      0.771602
      3 O1         -2.0460   -3.3630    0.8600 o         1 MOL     -0.605793
      4 H1         -4.2270   -3.1720    2.3120 hc        1 MOL      0.108695
      5 H2         -3.8980   -4.7390    3.0910 hc        1 MOL      0.108695
      6 H3         -2.8180   -3.3550    3.3840 hc        1 MOL      0.108695
      7 N1         -2.4390   -5.5460    1.0770 n         1 MOL     -0.482013
      8 C3         -1.6650   -5.9890   -0.0910 c3        1 MOL      0.066790
      9 C4         -0.1980   -5.4040   -0.0190 c         1 MOL      0.729030
     10 O2          0.3140   -4.8870   -1.0460 o         1 MOL     -0.539068
     11 C5         -2.4800   -5.6600   -1.3080 c3        1 MOL     -0.283271
     12 C6         -3.9720   -6.1290   -1.3270 c         1 MOL      0.774267
     13 O3         -4.7680   -5.5750   -2.0930 o         1 MOL     -0.708730
     14 O4         -4.3630   -6.9910   -0.5650 o         1 MOL     -0.708730
     15 H4         -2.9290   -6.2590    1.5900 hn        1 MOL      0.280086
     16 H5         -1.5950   -7.0750   -0.1210 h1        1 MOL      0.050272
     17 H6         -2.0360   -6.0480   -2.2270 hc        1 MOL      0.057955
     18 H7         -2.4600   -4.5630   -1.3420 hc        1 MOL      0.057955
     19 N2          0.4640   -5.5550    1.1440 n         1 MOL     -0.453315
     20 C7          1.9220   -5.2920    1.2890 c3        1 MOL     -0.372437
     21 C8          2.7200   -6.5050    0.5420 c         1 MOL      0.387647
     22 O5          2.0850   -7.5120    0.3630 o         1 MOL     -0.517507
     23 C9          2.2610   -5.1110    2.7840 c3        1 MOL      0.431762
     24 C10         2.1870   -6.3930    3.5920 c3        1 MOL     -0.035487
     25 C11         1.4670   -4.0040    3.4820 c3        1 MOL     -0.498469
     26 C12         2.4350   -6.1980    5.1380 c3        1 MOL     -0.235646
     27 H8         -0.0920   -5.8390    1.9440 hn        1 MOL      0.198634
     28 H9          2.0890   -4.3420    0.7810 h1        1 MOL      0.196520
     29 H10         3.3170   -4.8350    2.7640 hc        1 MOL     -0.030353
     30 H11         2.9250   -7.0750    3.1720 hc        1 MOL      0.043115
     31 H12         1.2000   -6.8530    3.5570 hc        1 MOL      0.043115
     32 H13         2.0900   -3.5200    4.2280 hc        1 MOL      0.117741
     33 H14         1.2970   -3.2640    2.6960 hc        1 MOL      0.117741
     34 H15         0.4820   -4.2970    3.8340 hc        1 MOL      0.117741
     35 H16         1.7560   -5.4180    5.4880 hc        1 MOL      0.048113
     36 H17         2.3610   -7.1200    5.7180 hc        1 MOL      0.048113
     37 H18         3.4250   -5.7680    5.2500 hc        1 MOL      0.048113
     38 N3          3.9890   -6.3990    0.1580 n         1 MOL     -0.280435
     39 C13         4.8410   -5.2090    0.3470 c3        1 MOL      0.124363
     40 C14         4.5770   -4.1220   -0.6950 c         1 MOL      0.340845
     41 O6          4.6880   -2.9240   -0.4310 o         1 MOL     -0.565334
     42 C15         6.3800   -5.6050    0.2850 c3        1 MOL     -0.383424
     43 C16         6.7970   -6.3890   -0.9410 c         1 MOL      0.814335
     44 O7          8.0060   -6.6100   -1.0580 o         1 MOL     -0.731448
     45 O8          5.9800   -6.7730   -1.7520 o         1 MOL     -0.731448
     46 H19         4.3830   -7.2020   -0.2980 hn        1 MOL      0.253971
     47 H20         4.6140   -4.8430    1.3450 h1        1 MOL      0.029452
     48 H21         6.5400   -6.2260    1.1710 hc        1 MOL      0.084089
     49 H22         6.9370   -4.6670    0.3310 hc        1 MOL      0.084089
     50 N4          4.2230   -4.4800   -1.9380 n         1 MOL     -0.061880
     51 C17         3.8210   -3.6550   -3.0130 c3        1 MOL     -0.363793
     52 C18         5.0620   -2.7750   -3.4230 c         1 MOL      0.719536
     53 O9          5.8430   -3.2100   -4.2620 o         1 MOL     -0.582309
     54 H23         4.2830   -5.4710   -2.1340 hn        1 MOL      0.243279
     55 H24         3.0410   -2.9920   -2.6160 h1        1 MOL      0.135762
     56 H25         3.3970   -4.2660   -3.8180 h1        1 MOL      0.135762
     57 N5          5.1200   -1.4880   -3.0100 n         1 MOL     -0.559345
     58 C19         6.1530   -0.4670   -3.4240 c3        1 MOL      0.234960
     59 C20         7.0640   -0.1500   -2.3150 c         1 MOL      0.269361
     60 O10         8.1510    0.3990   -2.5570 o         1 MOL     -0.543387
     61 C21         5.5330    0.8060   -4.0070 c3        1 MOL     -0.463696
     62 C22         4.4430    1.2860   -3.1030 c         1 MOL      0.857927
     63 O11         4.6770    1.8020   -1.9920 o         1 MOL     -0.719602
     64 O12         3.2350    1.2450   -3.5070 o         1 MOL     -0.719602
     65 H26         4.4140   -1.0850   -2.4060 hn        1 MOL      0.305602
     66 H27         6.7610   -0.8600   -4.2400 h1        1 MOL      0.093100
     67 H28         5.2800    0.6240   -5.0500 hc        1 MOL      0.107090
     68 H29         6.1860    1.6720   -3.8940 hc        1 MOL      0.107090
     69 N6          6.7170   -0.5080   -1.0430 n         1 MOL     -0.006663
     70 C23         7.4230   -0.2040    0.1200 c3        1 MOL     -0.369917
     71 C24         7.4930    1.2910    0.3820 c         1 MOL      0.513612
     72 O13         8.0200    1.6860    1.4330 o         1 MOL     -0.649364
     73 H30         5.9070   -1.0820   -0.8890 hn        1 MOL      0.195510
     74 H31         8.4650   -0.4440   -0.1000 h1        1 MOL      0.151151
     75 H32         7.0960   -0.7730    0.9850 h1        1 MOL      0.151151
     76 N7          6.8190    2.1860   -0.3240 n         1 MOL      0.097561
     77 C25         6.6730    3.6090   -0.0300 c3        1 MOL      0.133712
     78 C26         6.3010    3.9660    1.4210 c         1 MOL      0.210525
     79 O14         6.4950    5.0940    1.9480 o         1 MOL     -0.522682
     80 C27         7.9420    4.4210   -0.6840 c3        1 MOL      0.054579
     81 C28         8.3050    3.8760   -2.1280 c3        1 MOL     -0.183594
     82 C29         9.2270    4.8770   -2.8400 c         1 MOL      0.676054
     83 N8          9.8220    4.5630   -3.9740 n         1 MOL     -0.803877
     84 O15         9.3540    6.0580   -2.4710 o         1 MOL     -0.579350
     85 H33         6.2390    1.7150   -0.9980 hn        1 MOL     -0.053147
     86 H34         5.8790    4.0190   -0.6450 h1        1 MOL      0.096677
     87 H35         8.8650    4.2680   -0.1210 hc        1 MOL     -0.004576
     88 H36         7.6360    5.4680   -0.6970 hc        1 MOL     -0.004576
     89 H37         7.4950    3.7100   -2.8450 hc        1 MOL      0.055550
     90 H38         8.8370    2.9420   -1.9670 hc        1 MOL      0.055550
     91 H39         9.6070    3.6870   -4.4220 hn        1 MOL      0.344282
     92 H40        10.2230    5.2520   -4.5810 hn        1 MOL      0.344282
     93 N9          5.6150    3.1200    2.1670 n         1 MOL     -0.011415
     94 C30         5.1450    3.2970    3.5470 c3        1 MOL     -0.012712
     95 C31         3.6440    3.4820    3.6360 c         1 MOL      0.460785
     96 O16         3.0640    3.9760    4.5820 o         1 MOL     -0.532865
     97 C32         5.6870    2.1990    4.4940 c3        1 MOL      0.433734
     98 C33         5.4890    0.8590    3.9150 c3        1 MOL     -0.404256
     99 C34         7.2060    2.4280    4.8930 c3        1 MOL     -0.404256
    100 H41         5.4390    2.2310    1.7110 hn        1 MOL      0.124986
    101 H42         5.5570    4.1980    3.9940 h1        1 MOL      0.064656
    102 H43         5.0720    2.3280    5.3860 hc        1 MOL     -0.097360
    103 H44         4.4510    0.7870    3.5680 hc        1 MOL      0.086167
    104 H45         6.2770    0.5670    3.2250 hc        1 MOL      0.086167
    105 H46         5.6180    0.1000    4.6780 hc        1 MOL      0.086167
    106 H47         7.8270    2.3350    4.0080 hc        1 MOL      0.086167
    107 H48         7.2180    3.4870    5.1170 hc        1 MOL      0.086167
    108 H49         7.4080    1.7050    5.6820 hc        1 MOL      0.086167
    109 N10         2.9240    3.2900    2.5170 n         1 MOL     -0.434877
    110 C35         1.4760    3.2400    2.3520 c3        1 MOL      0.373731
    111 C36         1.0040    3.8250    0.9900 c         1 MOL      0.546868
    112 O17         1.8390    4.0540    0.1650 o         1 MOL     -0.499577
    113 C37         0.9600    1.8010    2.5570 c3        1 MOL     -0.449001
    114 C38         1.4170    1.2420    3.9220 c         1 MOL      0.793846
    115 N11         1.8060    0.0000    3.9340 n         1 MOL     -0.792124
    116 O18         1.1420    1.7700    4.9780 o         1 MOL     -0.565776
    117 H50         3.4630    2.9950    1.7160 hn        1 MOL      0.163481
    118 H51         1.0480    3.8970    3.1010 h1        1 MOL     -0.007737
    119 H52         1.3170    1.1210    1.7890 hc        1 MOL      0.105558
    120 H53        -0.1210    1.7830    2.4130 hc        1 MOL      0.105558
    121 H54         2.0830   -0.4370    3.0750 hn        1 MOL      0.344522
    122 H55         2.1000   -0.5290    4.7450 hn        1 MOL      0.344522
    123 N12        -0.3540    4.0000    0.7700 n         1 MOL     -0.540300
    124 C39        -0.9180    4.6550   -0.4510 c3        1 MOL     -0.042136
    125 C40        -2.3620    5.0130   -0.1410 c         1 MOL      0.658170
    126 O19        -2.9630    4.3940    0.7810 o         1 MOL     -0.569679
    127 C41        -0.8670    3.6480   -1.6220 c3        1 MOL     -0.165338
    128 C42        -1.3870    2.2210   -1.5150 ca        1 MOL      0.053494
    129 C43        -0.6250    1.1860   -0.9590 ca        1 MOL     -0.079254
    130 C44        -2.6540    1.8860   -2.0950 ca        1 MOL     -0.079254
    131 C45        -1.1910   -0.1180   -0.7610 ca        1 MOL     -0.399675
    132 C46        -3.1260    0.5040   -2.0520 ca        1 MOL     -0.399675
    133 C47        -2.4570   -0.4860   -1.3420 ca        1 MOL      0.533113
    134 O20        -3.0030   -1.7200   -1.2520 oh        1 MOL     -0.514651
    135 H56        -1.0650    3.6780    1.4140 hn        1 MOL      0.282177
    136 H57        -0.3020    5.5290   -0.6400 h1        1 MOL      0.119263
    137 H58         0.1630    3.5320   -1.9700 hc        1 MOL      0.085374
    138 H59        -1.2660    4.1100   -2.5200 hc        1 MOL      0.085374
    139 H60         0.3290    1.4520   -0.5110 ha        1 MOL      0.127039
    140 H61        -3.3170    2.6250   -2.5090 ha        1 MOL      0.127039
    141 H62        -0.6150   -0.8410   -0.2040 ha        1 MOL      0.193032
    142 H63        -4.0030    0.2600   -2.6180 ha        1 MOL      0.193032
    143 H64        -2.6860   -2.2180   -0.5000 ho        1 MOL      0.352096
    144 N13        -2.9540    5.8660   -0.8900 n         1 MOL     -0.628296
    145 C48        -4.2960    6.3620   -0.7050 c3        1 MOL      0.047489
    146 C49        -5.2050    6.0470   -1.9140 c         1 MOL      0.629137
    147 O21        -5.3500    6.8160   -2.8250 o         1 MOL     -0.583235
    148 C50        -4.2500    7.8280   -0.3180 c3        1 MOL      0.054388
    149 C51        -5.5810    8.5170    0.0030 c3        1 MOL     -0.327496
    150 C52        -5.3210    9.9390    0.4690 c         1 MOL      0.692028
    151 O22        -5.2390   10.1080    1.7030 o         1 MOL     -0.685324
    152 O23        -5.0380   10.8130   -0.3840 o         1 MOL     -0.685324
    153 H65        -2.4920    6.1290   -1.7480 hn        1 MOL      0.355034
    154 H66        -4.8440    5.9410    0.1380 h1        1 MOL      0.056551
    155 H67        -3.6800    8.3840   -1.0580 hc        1 MOL      0.041836
    156 H68        -3.5300    7.8300    0.5060 hc        1 MOL      0.041836
    157 H69        -5.9000    7.9520    0.8750 hc        1 MOL      0.077656
    158 H70        -6.2910    8.5100   -0.8300 hc        1 MOL      0.077656
    159 N14        -5.8800    4.9510   -1.9190 n         1 MOL     -0.520695
    160 C53        -5.9490    3.8380   -0.9890 c3        1 MOL      0.105621
    161 C54        -6.5330    4.0660    0.4180 c         1 MOL      0.555623
    162 O24        -7.5870    4.7660    0.5520 o         1 MOL     -0.565136
    163 C55        -6.5020    2.6030   -1.7230 c3        1 MOL     -0.262843
    164 C56        -6.4190    1.3700   -0.8150 c3        1 MOL     -0.091404
    165 C57        -6.7460    0.0600   -1.4510 c         1 MOL      0.659963
    166 O25        -7.2140    0.1010   -2.6430 o         1 MOL     -0.698663
    167 O26        -6.6890   -0.9960   -0.7970 o         1 MOL     -0.698663
    168 H71        -6.4640    4.8370   -2.7340 hn        1 MOL      0.290704
    169 H72        -4.8990    3.6210   -0.8220 h1        1 MOL      0.015294
    170 H73        -5.9010    2.3980   -2.6090 hc        1 MOL      0.107664
    171 H74        -7.5540    2.8010   -1.9260 hc        1 MOL      0.107664
    172 H75        -7.0150    1.4840    0.0950 hc        1 MOL     -0.007553
    173 H76        -5.3990    1.2910   -0.4370 hc        1 MOL     -0.007553
    174 N15        -5.8480    3.4940    1.4880 n         1 MOL     -0.239376
    175 C58        -6.1200    3.5680    2.8960 c3        1 MOL     -0.117083
    176 H77        -7.0820    4.0550    3.0550 h1        1 MOL      0.063722
    177 H78        -6.1480    2.5620    3.3140 h1        1 MOL      0.063722
    178 H79        -5.3360    4.1440    3.3880 h1        1 MOL      0.063722
    179 H80        -4.8760    3.2710    1.2940 hn        1 MOL      0.261641
    180 Ca1        -8.1170   -3.0750   -0.0730 Ca        1 MOL      1.857089
    181 O27        -9.1530   -1.7560   -2.2870 oh        1 MOL     -0.834156
    182 H81        -9.9090   -1.3590   -2.7300 ho        1 MOL      0.393258
    183 H82        -8.4880   -1.0610   -2.2980 ho        1 MOL      0.393258
    184 O28       -10.3020   -4.3550   -0.8850 oh        1 MOL     -0.834156
    185 H83       -10.8630   -4.9630   -0.4070 ho        1 MOL      0.393258
    186 H84       -10.7060   -4.2750   -1.7490 ho        1 MOL      0.393258
    187 O29        -5.3220   -3.5620   -0.2750 oh        1 MOL     -0.834156
    188 H85        -5.1600   -4.4160   -0.6750 ho        1 MOL      0.393258
    189 H86        -4.7660   -2.9650   -0.7750 ho        1 MOL      0.393258
    190 O30        -9.7480   -4.0470    1.9360 oh        1 MOL     -0.834156
    191 H87        -9.2170   -4.5000    2.5910 ho        1 MOL      0.393258
    192 H88       -10.6410   -4.0960    2.2690 ho        1 MOL      0.393258
    193 O31        -7.6480   -5.6600    0.2680 oh        1 MOL     -0.834156
    194 H89        -7.0980   -6.1950    0.8450 ho        1 MOL      0.393258
    195 H90        -8.1540   -6.2970   -0.2310 ho        1 MOL      0.393258
    196 O32        -7.2890   -1.9640    2.1370 oh        1 MOL     -0.834156
    197 H91        -7.5080   -1.2170    2.6920 ho        1 MOL      0.393258
    198 H92        -6.7500   -2.5260    2.7070 ho        1 MOL      0.393258
    199 O33       -10.0650   -1.3590    0.6140 oh        1 MOL     -0.834156
    200 H93        -9.8110   -0.7950    1.3510 ho        1 MOL      0.393258
    201 H94       -10.9750   -1.1470    0.4460 ho        1 MOL      0.393258
    202 O34        -7.0020   -3.8610   -2.5650 oh        1 MOL     -0.834156
    203 H95        -6.2910   -4.4110   -2.8890 ho        1 MOL      0.393258
    204 H96        -7.0920   -3.1760   -3.2230 ho        1 MOL      0.393258
@<TRIPOS>BOND
     1    1    2 1   
     2    1    4 1   
     3    1    5 1   
     4    1    6 1   
     5    2    3 2   
     6    2    7 1   
     7    7    8 1   
     8    7   15 1   
     9    8    9 1   
    10    8   11 1   
    11    8   16 1   
    12    9   10 2   
    13    9   19 1   
    14   11   12 1   
    15   11   17 1   
    16   11   18 1   
    17   12   13 1   
    18   12   14 1   
    19   19   20 1   
    20   19   27 1   
    21   20   21 1   
    22   20   23 1   
    23   20   28 1   
    24   21   22 2   
    25   21   38 1   
    26   23   24 1   
    27   23   25 1   
    28   23   29 1   
    29   24   26 1   
    30   24   30 1   
    31   24   31 1   
    32   25   32 1   
    33   25   33 1   
    34   25   34 1   
    35   26   35 1   
    36   26   36 1   
    37   26   37 1   
    38   38   39 1   
    39   38   46 1   
    40   39   40 1   
    41   39   42 1   
    42   39   47 1   
    43   40   41 2   
    44   40   50 1   
    45   42   43 1   
    46   42   48 1   
    47   42   49 1   
    48   43   44 1   
    49   43   45 1   
    50   50   51 1   
    51   50   54 1   
    52   51   52 1   
    53   51   55 1   
    54   51   56 1   
    55   52   53 2   
    56   52   57 1   
    57   57   58 1   
    58   57   65 1   
    59   58   59 1   
    60   58   61 1   
    61   58   66 1   
    62   59   60 2   
    63   59   69 1   
    64   61   62 1   
    65   61   67 1   
    66   61   68 1   
    67   62   63 1   
    68   62   64 1   
    69   69   70 1   
    70   69   73 1   
    71   70   71 1   
    72   70   74 1   
    73   70   75 1   
    74   71   72 2   
    75   71   76 1   
    76   76   77 1   
    77   76   85 1   
    78   77   78 1   
    79   77   80 1   
    80   77   86 1   
    81   78   79 2   
    82   78   93 1   
    83   80   81 1   
    84   80   87 1   
    85   80   88 1   
    86   81   82 1   
    87   81   89 1   
    88   81   90 1   
    89   82   83 1   
    90   82   84 2   
    91   83   91 1   
    92   83   92 1   
    93   93   94 1   
    94   93  100 1   
    95   94   95 1   
    96   94   97 1   
    97   94  101 1   
    98   95   96 2   
    99   95  109 1   
   100   97   98 1   
   101   97   99 1   
   102   97  102 1   
   103   98  103 1   
   104   98  104 1   
   105   98  105 1   
   106   99  106 1   
   107   99  107 1   
   108   99  108 1   
   109  109  110 1   
   110  109  117 1   
   111  110  111 1   
   112  110  113 1   
   113  110  118 1   
   114  111  112 2   
   115  111  123 1   
   116  113  114 1   
   117  113  119 1   
   118  113  120 1   
   119  114  115 1   
   120  114  116 2   
   121  115  121 1   
   122  115  122 1   
   123  123  124 1   
   124  123  135 1   
   125  124  125 1   
   126  124  127 1   
   127  124  136 1   
   128  125  126 2   
   129  125  144 1   
   130  127  128 1   
   131  127  137 1   
   132  127  138 1   
   133  128  129 ar  
   134  128  130 ar  
   135  129  131 ar  
   136  129  139 1   
   137  130  132 ar  
   138  130  140 1   
   139  131  133 ar  
   140  131  141 1   
   141  132  133 ar  
   142  132  142 1   
   143  133  134 1   
   144  134  143 1   
   145  144  145 1   
   146  144  153 1   
   147  145  146 1   
   148  145  148 1   
   149  145  154 1   
   150  146  147 2   
   151  146  159 1   
   152  148  149 1   
   153  148  155 1   
   154  148  156 1   
   155  149  150 1   
   156  149  157 1   
   157  149  158 1   
   158  150  151 1   
   159  150  152 1   
   160  159  160 1   
   161  159  168 1   
   162  160  161 1   
   163  160  163 1   
   164  160  169 1   
   165  161  162 2   
   166  161  174 1   
   167  163  164 1   
   168  163  170 1   
   169  163  171 1   
   170  164  165 1   
   171  164  172 1   
   172  164  173 1   
   173  165  166 1   
   174  165  167 1   
   175  174  175 1   
   176  174  179 1   
   177  175  176 1   
   178  175  177 1   
   179  175  178 1   
   180  181  182 1   
   181  181  183 1   
   182  184  185 1   
   183  184  186 1   
   184  187  188 1   
   185  187  189 1   
   186  190  191 1   
   187  190  192 1   
   188  193  194 1   
   189  193  195 1   
   190  196  197 1   
   191  196  198 1   
   192  199  200 1   
   193  199  201 1   
   194  202  203 1   
   195  202  204 1   
@<TRIPOS>SUBSTRUCTURE
     1 MOL         1 TEMP              0 ****  ****    0 ROOT
