@<TRIPOS>MOLECULE
MOL
  192   187     1     0     0
SMALL
resp


@<TRIPOS>ATOM
      1 C1          9.4860    0.7010    1.6730 c3        1 MOL     -0.520852
      2 C2          8.3320    0.6460    0.6420 c         1 MOL      0.680100
      3 O1          7.1940    1.0790    0.9520 o         1 MOL     -0.649087
      4 H1         10.3900    0.2860    1.2270 hc        1 MOL      0.129586
      5 H2          9.6660    1.7360    1.9620 hc        1 MOL      0.129586
      6 H3          9.2140    0.1180    2.5540 hc        1 MOL      0.129586
      7 N1          8.6190   -0.1100   -0.4000 n         1 MOL     -0.414453
      8 C3          7.6460   -0.4330   -1.4720 c3        1 MOL     -0.049866
      9 C4          6.9340   -1.7120   -1.2150 c         1 MOL      0.467635
     10 O2          6.8510   -2.6170   -2.0460 o         1 MOL     -0.466421
     11 C5          8.2590   -0.4480   -2.8590 c3        1 MOL     -0.257097
     12 C6          9.5570   -1.3090   -3.0440 c         1 MOL      0.709499
     13 O3         10.0200   -1.2370   -4.2320 o         1 MOL     -0.638083
     14 O4         10.2150   -1.8800   -2.1360 o         1 MOL     -0.638083
     15 H4          9.5040   -0.5950   -0.4970 hn        1 MOL      0.251339
     16 H5          6.8980    0.3480   -1.5820 h1        1 MOL      0.149886
     17 H6          8.5270    0.6010   -2.9720 hc        1 MOL      0.091866
     18 H7          7.4710   -0.6070   -3.5850 hc        1 MOL      0.091866
     19 N2          6.6800   -2.0360    0.0570 n         1 MOL     -0.374631
     20 C7          6.2290   -3.3900    0.4420 c3        1 MOL      0.170792
     21 C8          4.7350   -3.7250    0.0620 c         1 MOL      0.576773
     22 O5          4.5550   -4.8200   -0.4150 o         1 MOL     -0.558451
     23 C9          6.2950   -3.5750    1.9920 c3        1 MOL     -0.035644
     24 C10         7.6960   -3.8410    2.4490 c3        1 MOL     -0.223043
     25 C11         7.8220   -4.1310    3.9400 c3        1 MOL     -0.028459
     26 C12         9.2520   -4.2120    4.4400 c3        1 MOL      0.014843
     27 N3          9.3960   -4.0940    5.9090 n4        1 MOL     -0.183333
     28 H8          6.5980   -1.3090    0.7590 hn        1 MOL      0.260742
     29 H9          6.8310   -4.1530   -0.0470 h1        1 MOL      0.065625
     30 H10         5.6320   -4.4220    2.1600 hc        1 MOL      0.033152
     31 H11         6.0440   -2.6810    2.5630 hc        1 MOL      0.033152
     32 H12         8.3840   -3.0510    2.1600 hc        1 MOL      0.081394
     33 H13         8.0350   -4.7790    2.0000 hc        1 MOL      0.081394
     34 H14         7.4150   -5.1230    4.1100 hc        1 MOL      0.049946
     35 H15         7.2120   -3.5260    4.6150 hc        1 MOL      0.049946
     36 H16         9.8200   -3.3590    4.0740 hx        1 MOL      0.082370
     37 H17         9.7720   -5.1420    4.2090 hx        1 MOL      0.082370
     38 H18         8.9930   -4.8400    6.4490 hn        1 MOL      0.229804
     39 H19        10.3950   -4.0480    6.0550 hn        1 MOL      0.229804
     40 H20         8.9500   -3.2640    6.2840 hn        1 MOL      0.229804
     41 N4          3.7870   -2.8330    0.2370 n         1 MOL     -0.566733
     42 C13         3.7770   -1.4970    0.9460 c3        1 MOL      0.018456
     43 C14         3.8810   -0.3340   -0.0690 c         1 MOL      0.129386
     44 O6          3.6430   -0.5350   -1.2630 o         1 MOL     -0.357300
     45 C15         2.5760   -1.3410    1.8460 c3        1 MOL      0.020217
     46 C16         1.2760   -1.5250    1.0820 c         1 MOL      0.545767
     47 O7          1.0210   -0.7960    0.0540 o         1 MOL     -0.604164
     48 O8          0.4280   -2.3210    1.5580 o         1 MOL     -0.604164
     49 H21         3.0090   -3.0150   -0.3800 hn        1 MOL      0.378479
     50 H22         4.6470   -1.4920    1.6050 h1        1 MOL      0.060971
     51 H23         2.6960   -0.3570    2.3100 hc        1 MOL      0.006793
     52 H24         2.6270   -2.0560    2.6580 hc        1 MOL      0.006793
     53 N5          3.9510    0.8320    0.4930 n         1 MOL     -0.163228
     54 C17         3.9830    2.1480   -0.1990 c3        1 MOL     -0.105548
     55 C18         2.6800    2.6820   -0.7730 c         1 MOL      0.580400
     56 O9          1.5750    2.1810   -0.6460 o         1 MOL     -0.681424
     57 H25         3.8680    0.8130    1.4960 hn        1 MOL      0.238367
     58 H26         4.6400    1.9750   -1.0480 h1        1 MOL      0.099173
     59 H27         4.5390    2.8250    0.4380 h1        1 MOL      0.099173
     60 N6          2.8580    3.9110   -1.3270 n         1 MOL     -0.388929
     61 C19         1.8920    4.7850   -2.0270 c3        1 MOL      0.160985
     62 C20         2.1490    6.2560   -1.5980 c         1 MOL      0.605150
     63 O10         3.2160    6.5960   -1.1640 o         1 MOL     -0.551531
     64 C21         2.1450    4.6040   -3.5790 c3        1 MOL     -0.598469
     65 C22         1.7360    3.1300   -3.9950 c         1 MOL      0.849340
     66 O11         0.5140    2.8850   -4.0430 o         1 MOL     -0.682801
     67 O12         2.5490    2.2290   -4.3590 o         1 MOL     -0.682801
     68 H28         3.7420    4.3870   -1.1790 hn        1 MOL      0.255108
     69 H29         0.8720    4.5570   -1.7310 h1        1 MOL      0.036289
     70 H30         3.1560    4.9730   -3.7140 hc        1 MOL      0.161847
     71 H31         1.5470    5.3370   -4.1140 hc        1 MOL      0.161847
     72 N7          1.2120    7.2130   -1.7320 n         1 MOL     -0.507875
     73 C23        -0.2280    7.0300   -1.8920 c3        1 MOL      0.049161
     74 C24        -0.9330    6.4360   -0.6790 c         1 MOL      0.715721
     75 O13        -0.5340    6.7580    0.4460 o         1 MOL     -0.550313
     76 H32         1.5570    8.1490   -1.5650 hn        1 MOL      0.324881
     77 H33        -0.4270    6.4690   -2.8090 h1        1 MOL      0.025192
     78 H34        -0.6870    8.0170   -1.9990 h1        1 MOL      0.025192
     79 N8         -1.9970    5.6560   -0.9450 n         1 MOL     -0.788429
     80 C25        -2.7450    4.9730    0.0840 c3        1 MOL      0.201057
     81 C26        -1.8230    3.8260    0.5800 c         1 MOL      0.664428
     82 O14        -1.1750    3.1920   -0.2980 o         1 MOL     -0.611216
     83 C27        -4.0800    4.4620   -0.4040 c3        1 MOL      0.475837
     84 C28        -5.0410    5.5500   -0.8080 c3        1 MOL     -0.404743
     85 O15        -4.7750    3.8820    0.6690 oh        1 MOL     -0.632764
     86 H35        -2.2520    5.6190   -1.9260 hn        1 MOL      0.370975
     87 H36        -2.7860    5.6750    0.9280 h1        1 MOL      0.039197
     88 H37        -3.8470    3.7650   -1.2180 h1        1 MOL     -0.033983
     89 H38        -5.1340    3.0840    0.2630 ho        1 MOL      0.360379
     90 H39        -4.6230    5.8870   -1.7680 hc        1 MOL      0.103370
     91 H40        -6.0430    5.1380   -0.9250 hc        1 MOL      0.103370
     92 H41        -4.9840    6.3500   -0.0740 hc        1 MOL      0.103370
     93 N9         -1.8870    3.6550    1.9340 n         1 MOL     -0.768928
     94 C29        -1.1330    2.6830    2.6810 c3        1 MOL      0.307371
     95 C30        -1.5710    1.2810    2.2710 c         1 MOL      0.302050
     96 O16        -1.1530    0.8330    1.2330 o         1 MOL     -0.584609
     97 C31         0.3730    2.8650    2.5830 c3        1 MOL     -0.023158
     98 C32         0.8430    4.3320    2.9030 c3        1 MOL      0.102918
     99 C33         1.0790    1.9190    3.4910 c3        1 MOL     -0.575857
    100 C34         2.3090    4.6570    2.9110 c3        1 MOL     -0.207278
    101 H42        -2.4690    4.2570    2.5020 hn        1 MOL      0.366496
    102 H43        -1.3900    2.8130    3.7330 h1        1 MOL      0.021057
    103 H44         0.6610    2.7470    1.5350 hc        1 MOL      0.206246
    104 H45         0.3770    4.6830    3.8210 hc        1 MOL     -0.003076
    105 H46         0.4610    4.9390    2.0850 hc        1 MOL     -0.003076
    106 H47         0.9320    2.1220    4.5530 hc        1 MOL      0.146792
    107 H48         0.7890    0.8980    3.2510 hc        1 MOL      0.146792
    108 H49         2.1390    1.8650    3.2560 hc        1 MOL      0.146792
    109 H50         2.7280    4.6920    1.8990 hc        1 MOL      0.051656
    110 H51         2.5240    5.6300    3.3440 hc        1 MOL      0.051656
    111 H52         2.7490    3.8280    3.4780 hc        1 MOL      0.051656
    112 N10        -2.4160    0.5920    3.0670 n         1 MOL     -0.236912
    113 C35        -2.7410   -0.8040    2.9500 c3        1 MOL      0.033266
    114 C36        -4.2610   -1.1300    2.9580 c         1 MOL      0.456200
    115 O17        -4.5760   -2.3290    3.1190 o         1 MOL     -0.555274
    116 C37        -2.0040   -1.6500    4.0280 c3        1 MOL      0.341053
    117 C38        -2.4820   -1.2170    5.4150 c3        1 MOL     -0.348687
    118 O18        -0.6050   -1.4990    4.0400 oh        1 MOL     -0.565548
    119 H53        -2.8870    1.0300    3.8490 hn        1 MOL      0.226354
    120 H54        -2.3540   -1.2040    2.0100 h1        1 MOL      0.065422
    121 H55        -2.2640   -2.6980    3.9120 h1        1 MOL      0.041900
    122 H56        -0.2380   -1.7630    3.1980 ho        1 MOL      0.330423
    123 H57        -2.1910   -0.1840    5.6360 hc        1 MOL      0.079203
    124 H58        -3.5630   -1.2320    5.4970 hc        1 MOL      0.079203
    125 H59        -1.9440   -1.8720    6.1090 hc        1 MOL      0.079203
    126 N11        -5.1480   -0.1560    2.6950 n         1 MOL     -0.268520
    127 C39        -6.6400   -0.4250    2.6780 c3        1 MOL      0.080791
    128 C40        -7.0710   -0.8770    1.2770 c         1 MOL      0.289467
    129 O19        -7.5910   -0.1170    0.4560 o         1 MOL     -0.451470
    130 C41        -7.3000    0.8920    3.1010 c3        1 MOL      0.434402
    131 C42        -8.7490    0.6730    3.4420 c3        1 MOL     -0.467720
    132 O20        -6.7390    1.4760    4.2290 oh        1 MOL     -0.639332
    133 H60        -4.7620    0.7770    2.6980 hn        1 MOL      0.174913
    134 H61        -6.8460   -1.1640    3.4630 h1        1 MOL      0.084061
    135 H62        -7.2310    1.5980    2.2720 h1        1 MOL     -0.017179
    136 H63        -7.2390    2.2840    4.3660 ho        1 MOL      0.408761
    137 H64        -9.3280    1.5770    3.6710 hc        1 MOL      0.112048
    138 H65        -9.1890    0.1160    2.6080 hc        1 MOL      0.112048
    139 H66        -8.8220    0.0720    4.3440 hc        1 MOL      0.112048
    140 N12        -6.9150   -2.2090    0.9690 n         1 MOL     -0.450049
    141 C43        -6.5040   -2.7830   -0.2860 c3        1 MOL      0.333130
    142 C44        -5.0580   -2.4350   -0.6980 c         1 MOL      0.579097
    143 O21        -4.5550   -1.3980   -0.2800 o         1 MOL     -0.502992
    144 C45        -7.5600   -2.5700   -1.4340 c3        1 MOL     -0.450219
    145 C46        -8.9880   -2.9940   -1.0700 c3        1 MOL      0.285557
    146 C47       -10.0420   -2.0320   -1.7290 c3        1 MOL     -0.076534
    147 C48       -11.5410   -2.4880   -1.5370 c3        1 MOL      0.012302
    148 N13       -11.9920   -3.0950   -0.2630 n4        1 MOL     -0.183660
    149 H67        -6.5710   -2.7360    1.7670 hn        1 MOL      0.267940
    150 H68        -6.5330   -3.8430   -0.0100 h1        1 MOL     -0.010001
    151 H69        -7.3110   -3.0860   -2.3540 hc        1 MOL      0.122933
    152 H70        -7.5630   -1.4900   -1.5870 hc        1 MOL      0.122933
    153 H71        -9.1460   -3.1500   -0.0070 hc        1 MOL     -0.049218
    154 H72        -9.1070   -4.0070   -1.4560 hc        1 MOL     -0.049218
    155 H73        -9.9670   -1.9920   -2.8100 hc        1 MOL      0.061123
    156 H74        -9.8490   -1.0490   -1.2980 hc        1 MOL      0.061123
    157 H75       -11.6960   -3.2320   -2.3230 hx        1 MOL      0.069455
    158 H76       -12.1610   -1.6260   -1.7810 hx        1 MOL      0.069455
    159 H77       -12.9740   -3.3560   -0.3220 hn        1 MOL      0.219440
    160 H78       -11.5680   -4.0040   -0.1130 hn        1 MOL      0.219440
    161 H79       -11.8710   -2.4730    0.5210 hn        1 MOL      0.219440
    162 N14        -4.4660   -3.2960   -1.5360 n         1 MOL     -0.764669
    163 C49        -3.1800   -3.0220   -2.3310 c3        1 MOL      0.458142
    164 C50        -2.0140   -2.5450   -1.4890 c         1 MOL      0.248098
    165 O22        -1.4060   -1.5920   -1.9350 o         1 MOL     -0.561987
    166 C51        -2.8000   -4.2660   -3.1250 c3        1 MOL     -0.053444
    167 C52        -3.7160   -4.4920   -4.2960 c3        1 MOL     -0.199628
    168 C53        -3.3460   -5.7940   -5.0060 c         1 MOL      0.683565
    169 O23        -3.2930   -6.9120   -4.3820 o         1 MOL     -0.622767
    170 O24        -3.2720   -5.7860   -6.2680 o         1 MOL     -0.622767
    171 H80        -4.9290   -4.1830   -1.6980 hn        1 MOL      0.372396
    172 H81        -3.4370   -2.2550   -3.0560 h1        1 MOL      0.052033
    173 H82        -2.8440   -5.1870   -2.5360 hc        1 MOL      0.043423
    174 H83        -1.7810   -4.1680   -3.5110 hc        1 MOL      0.043423
    175 H84        -3.6850   -3.5710   -4.8810 hc        1 MOL      0.020185
    176 H85        -4.7070   -4.6460   -3.8690 hc        1 MOL      0.020185
    177 N15        -1.5870   -3.1320   -0.3110 n         1 MOL     -0.202083
    178 C54        -2.0110   -4.4970    0.1930 c3        1 MOL     -0.083035
    179 H86        -1.1510   -5.1650    0.1970 h1        1 MOL      0.052923
    180 H87        -2.4030   -4.4050    1.2060 h1        1 MOL      0.052923
    181 H88        -2.7830   -4.9030   -0.4600 h1        1 MOL      0.052923
    182 H89        -0.8400   -2.5830    0.0830 hn        1 MOL      0.280041
    183 Ca1        -0.5040    0.8120   -1.3000 Ca        1 MOL      1.829202
    184 O25        -1.2460    1.1400   -3.9140 oh        1 MOL     -0.931655
    185 H90        -1.2020    0.4960   -4.6140 ho        1 MOL      0.428863
    186 H91        -0.5270    1.7460   -4.0910 ho        1 MOL      0.428863
    187 O26         1.3440    0.0520   -3.0260 oh        1 MOL     -0.931655
    188 H92         1.7210    0.7390   -3.5850 ho        1 MOL      0.428863
    189 H93         2.0940   -0.3100   -2.5630 ho        1 MOL      0.428863
    190 O27        -3.1160    0.6010   -0.9550 oh        1 MOL     -0.931655
    191 H94        -3.6300   -0.2000   -0.9050 ho        1 MOL      0.428863
    192 H95        -3.6510    1.2670   -0.5230 ho        1 MOL      0.428863
@<TRIPOS>BOND
     1    1    2 1   
     2    1    4 1   
     3    1    5 1   
     4    1    6 1   
     5    2    3 2   
     6    2    7 1   
     7    7    8 1   
     8    7   15 1   
     9    8    9 1   
    10    8   11 1   
    11    8   16 1   
    12    9   10 2   
    13    9   19 1   
    14   11   12 1   
    15   11   17 1   
    16   11   18 1   
    17   12   13 1   
    18   12   14 1   
    19   19   20 1   
    20   19   28 1   
    21   20   21 1   
    22   20   23 1   
    23   20   29 1   
    24   21   22 2   
    25   21   41 1   
    26   23   24 1   
    27   23   30 1   
    28   23   31 1   
    29   24   25 1   
    30   24   32 1   
    31   24   33 1   
    32   25   26 1   
    33   25   34 1   
    34   25   35 1   
    35   26   27 1   
    36   26   36 1   
    37   26   37 1   
    38   27   38 1   
    39   27   39 1   
    40   27   40 1   
    41   41   42 1   
    42   41   49 1   
    43   42   43 1   
    44   42   45 1   
    45   42   50 1   
    46   43   44 2   
    47   43   53 1   
    48   45   46 1   
    49   45   51 1   
    50   45   52 1   
    51   46   47 1   
    52   46   48 1   
    53   53   54 1   
    54   53   57 1   
    55   54   55 1   
    56   54   58 1   
    57   54   59 1   
    58   55   56 2   
    59   55   60 1   
    60   60   61 1   
    61   60   68 1   
    62   61   62 1   
    63   61   64 1   
    64   61   69 1   
    65   62   63 2   
    66   62   72 1   
    67   64   65 1   
    68   64   70 1   
    69   64   71 1   
    70   65   66 1   
    71   65   67 1   
    72   72   73 1   
    73   72   76 1   
    74   73   74 1   
    75   73   77 1   
    76   73   78 1   
    77   74   75 2   
    78   74   79 1   
    79   79   80 1   
    80   79   86 1   
    81   80   81 1   
    82   80   83 1   
    83   80   87 1   
    84   81   82 2   
    85   81   93 1   
    86   83   84 1   
    87   83   85 1   
    88   83   88 1   
    89   84   90 1   
    90   84   91 1   
    91   84   92 1   
    92   85   89 1   
    93   93   94 1   
    94   93  101 1   
    95   94   95 1   
    96   94   97 1   
    97   94  102 1   
    98   95   96 2   
    99   95  112 1   
   100   97   98 1   
   101   97   99 1   
   102   97  103 1   
   103   98  100 1   
   104   98  104 1   
   105   98  105 1   
   106   99  106 1   
   107   99  107 1   
   108   99  108 1   
   109  100  109 1   
   110  100  110 1   
   111  100  111 1   
   112  112  113 1   
   113  112  119 1   
   114  113  114 1   
   115  113  116 1   
   116  113  120 1   
   117  114  115 2   
   118  114  126 1   
   119  116  117 1   
   120  116  118 1   
   121  116  121 1   
   122  117  123 1   
   123  117  124 1   
   124  117  125 1   
   125  118  122 1   
   126  126  127 1   
   127  126  133 1   
   128  127  128 1   
   129  127  130 1   
   130  127  134 1   
   131  128  129 2   
   132  128  140 1   
   133  130  131 1   
   134  130  132 1   
   135  130  135 1   
   136  131  137 1   
   137  131  138 1   
   138  131  139 1   
   139  132  136 1   
   140  140  141 1   
   141  140  149 1   
   142  141  142 1   
   143  141  144 1   
   144  141  150 1   
   145  142  143 2   
   146  142  162 1   
   147  144  145 1   
   148  144  151 1   
   149  144  152 1   
   150  145  146 1   
   151  145  153 1   
   152  145  154 1   
   153  146  147 1   
   154  146  155 1   
   155  146  156 1   
   156  147  148 1   
   157  147  157 1   
   158  147  158 1   
   159  148  159 1   
   160  148  160 1   
   161  148  161 1   
   162  162  163 1   
   163  162  171 1   
   164  163  164 1   
   165  163  166 1   
   166  163  172 1   
   167  164  165 2   
   168  164  177 1   
   169  166  167 1   
   170  166  173 1   
   171  166  174 1   
   172  167  168 1   
   173  167  175 1   
   174  167  176 1   
   175  168  169 1   
   176  168  170 1   
   177  177  178 1   
   178  177  182 1   
   179  178  179 1   
   180  178  180 1   
   181  178  181 1   
   182  184  185 1   
   183  184  186 1   
   184  187  188 1   
   185  187  189 1   
   186  190  191 1   
   187  190  192 1   
@<TRIPOS>SUBSTRUCTURE
     1 MOL         1 TEMP              0 ****  ****    0 ROOT
