@<TRIPOS>MOLECULE
MOL
  186   183     1     0     0
SMALL
resp


@<TRIPOS>ATOM
      1 C1        -12.4040    5.0290    3.8270 c3        1 MOL     -0.388802
      2 C2        -12.4230    4.2440    2.5010 c         1 MOL      0.523805
      3 O1        -13.3600    3.5080    2.2090 o         1 MOL     -0.534786
      4 H1        -11.3720    5.2370    4.1100 hc        1 MOL      0.113901
      5 H2        -12.9430    5.9680    3.7030 hc        1 MOL      0.113901
      6 H3        -12.8810    4.4360    4.6070 hc        1 MOL      0.113901
      7 N1        -11.3500    4.4060    1.6370 n         1 MOL      0.096414
      8 C3        -11.3140    3.8520    0.3520 c3        1 MOL     -0.590031
      9 C4        -10.3250    2.6470    0.3130 c         1 MOL      0.372789
     10 O2         -9.2350    2.6800    0.8900 o         1 MOL     -0.537371
     11 C5        -10.9590    4.8870   -0.7560 c3        1 MOL      0.313500
     12 C6         -9.7470    5.7390   -0.5050 c         1 MOL      0.564758
     13 O3         -9.0920    5.6310    0.5590 o         1 MOL     -0.678632
     14 O4         -9.4950    6.6180   -1.3250 o         1 MOL     -0.678632
     15 H4        -10.5590    4.9250    1.9930 hn        1 MOL      0.008649
     16 H5        -12.2670    3.4170    0.0710 h1        1 MOL      0.168278
     17 H6        -11.8000    5.5850   -0.7650 hc        1 MOL      0.001280
     18 H7        -10.8700    4.2970   -1.6710 hc        1 MOL      0.001280
     19 N2        -10.7010    1.4720   -0.2770 n         1 MOL     -0.175598
     20 C7         -9.9530    0.2640   -0.1740 c3        1 MOL      0.066377
     21 C8         -8.7070    0.2410   -1.0680 c         1 MOL      0.380829
     22 O5         -8.5770   -0.5730   -1.9250 o         1 MOL     -0.511473
     23 C9        -10.9770   -0.8870   -0.4050 c3        1 MOL     -0.266727
     24 C10       -10.5410   -2.3410   -0.0360 c3        1 MOL      0.142462
     25 C11       -11.5790   -3.4020   -0.4310 c3        1 MOL     -0.109397
     26 C12       -11.1190   -4.8300   -0.1320 c3        1 MOL      0.054541
     27 N3         -9.9000   -5.2550   -0.9200 n4        1 MOL     -0.466363
     28 H8        -11.6400    1.4580   -0.6370 hn        1 MOL      0.241203
     29 H9         -9.6510    0.0770    0.8570 h1        1 MOL      0.060177
     30 H10       -11.2440   -0.7660   -1.4590 hc        1 MOL      0.087511
     31 H11       -11.8620   -0.7710    0.2120 hc        1 MOL      0.087511
     32 H12       -10.4400   -2.4740    1.0410 hc        1 MOL      0.007619
     33 H13        -9.5760   -2.5250   -0.5150 hc        1 MOL      0.007619
     34 H14       -11.8220   -3.3460   -1.4910 hc        1 MOL      0.052913
     35 H15       -12.5310   -3.2570    0.0840 hc        1 MOL      0.052913
     36 H16       -11.8980   -5.5450   -0.3650 hx        1 MOL      0.090636
     37 H17       -11.0690   -5.0040    0.9440 hx        1 MOL      0.090636
     38 H18       -10.0670   -5.0130   -1.8840 hn        1 MOL      0.358611
     39 H19        -9.0290   -4.8870   -0.5630 hn        1 MOL      0.358611
     40 H20        -9.7990   -6.2690   -0.9640 hn        1 MOL      0.358611
     41 N4         -7.7140    1.0760   -0.7580 n         1 MOL      0.039124
     42 C13        -6.3320    0.8570   -1.0160 c3        1 MOL     -0.156709
     43 C14        -5.4810    1.2740    0.1970 c         1 MOL      0.371870
     44 O6         -5.8880    2.1210    1.0040 o         1 MOL     -0.655420
     45 C15        -6.0160    1.5870   -2.3680 c3        1 MOL     -0.086021
     46 C16        -6.2360    3.0960   -2.3040 c         1 MOL      0.553364
     47 O7         -6.7200    3.6690   -1.2900 o         1 MOL     -0.643870
     48 O8         -5.9320    3.7900   -3.3360 o         1 MOL     -0.643870
     49 H21        -7.9680    1.8010   -0.0980 hn        1 MOL      0.073514
     50 H22        -6.2230   -0.2010   -1.2560 h1        1 MOL      0.083721
     51 H23        -6.6110    1.1250   -3.1550 hc        1 MOL      0.076769
     52 H24        -4.9500    1.4390   -2.5410 hc        1 MOL      0.076769
     53 N5         -4.3280    0.7070    0.4970 n         1 MOL     -0.129237
     54 C17        -3.6300   -0.3930   -0.1850 c3        1 MOL     -0.305202
     55 C18        -4.2630   -1.7600   -0.0500 c         1 MOL      0.678796
     56 O9         -4.8700   -2.0720    0.9740 o         1 MOL     -0.544955
     57 H25        -3.7570    1.2370    1.1390 hn        1 MOL      0.242352
     58 H26        -2.5980   -0.4160    0.1580 h1        1 MOL      0.117698
     59 H27        -3.6860   -0.2190   -1.2530 h1        1 MOL      0.117698
     60 N6         -4.0210   -2.6230   -1.0720 n         1 MOL     -0.628126
     61 C19        -4.3440   -4.0630   -1.0130 c3        1 MOL      0.622820
     62 C20        -3.1110   -4.8250   -1.3710 c         1 MOL      0.382200
     63 O10        -2.2540   -4.3050   -2.1260 o         1 MOL     -0.520169
     64 C21        -5.5920   -4.4560   -1.7880 c3        1 MOL     -0.518381
     65 C22        -6.0240   -5.8340   -1.2440 c         1 MOL      0.674354
     66 O11        -6.5340   -6.7150   -2.0270 o         1 MOL     -0.694222
     67 O12        -5.7520   -6.1930   -0.0580 o         1 MOL     -0.694222
     68 H28        -3.5090   -2.2840   -1.8790 hn        1 MOL      0.282665
     69 H29        -4.5230   -4.2500    0.0500 h1        1 MOL     -0.107382
     70 H30        -5.4280   -4.5430   -2.8610 hc        1 MOL      0.107008
     71 H31        -6.3200   -3.6720   -1.5700 hc        1 MOL      0.107008
     72 N7         -3.0590   -6.0640   -0.8200 n         1 MOL     -0.251947
     73 C23        -1.9300   -6.9000   -0.9550 c3        1 MOL     -0.193558
     74 C24        -0.6710   -6.4290   -0.2980 c         1 MOL      0.624067
     75 O13         0.0650   -7.2710    0.1230 o         1 MOL     -0.563203
     76 H32        -3.8850   -6.3920   -0.3450 hn        1 MOL      0.294101
     77 H33        -1.6680   -6.9900   -2.0030 h1        1 MOL      0.114790
     78 H34        -2.1800   -7.9320   -0.6880 h1        1 MOL      0.114790
     79 N8         -0.4630   -5.1080   -0.1050 n         1 MOL     -0.447536
     80 C25         0.6550   -4.5030    0.6050 c3        1 MOL     -0.023424
     81 C26         1.3460   -3.2650   -0.1800 c         1 MOL      0.752797
     82 O14         0.8580   -2.8830   -1.2290 o         1 MOL     -0.524451
     83 C27         0.2110   -4.1290    2.0560 c3        1 MOL      0.158860
     84 C28        -0.9010   -3.0310    2.0760 c3        1 MOL     -0.214353
     85 O15        -0.3530   -5.1930    2.7490 oh        1 MOL     -0.544242
     86 H35        -1.0610   -4.4320   -0.5700 hn        1 MOL      0.197027
     87 H36         1.4040   -5.2970    0.5560 h1        1 MOL      0.060890
     88 H37         1.0290   -3.7360    2.6620 h1        1 MOL      0.018142
     89 H38         0.2470   -5.9400    2.6600 ho        1 MOL      0.384266
     90 H39        -0.5810   -2.1620    1.4990 hc        1 MOL      0.084636
     91 H40        -1.8270   -3.4400    1.6530 hc        1 MOL      0.084636
     92 H41        -1.2240   -2.7570    3.0770 hc        1 MOL      0.084636
     93 N9          2.3930   -2.6750    0.3120 n         1 MOL     -0.681914
     94 C29         3.0580   -1.5060   -0.3160 c3        1 MOL     -0.039533
     95 C30         4.4740   -1.8230   -0.7240 c         1 MOL      0.484569
     96 O16         5.0090   -1.0330   -1.4770 o         1 MOL     -0.530574
     97 C31         2.8850   -0.1690    0.5430 c3        1 MOL      0.119261
     98 C32         3.2090   -0.3870    2.0210 c3        1 MOL      0.024105
     99 C33         1.4220    0.4390    0.4580 c3        1 MOL     -0.214215
    100 C34         3.3480    0.9180    2.8190 c3        1 MOL     -0.187556
    101 H42         2.7610   -3.0560    1.1790 hn        1 MOL      0.262842
    102 H43         2.5030   -1.2870   -1.2270 h1        1 MOL      0.147069
    103 H44         3.5740    0.5440    0.1000 hc        1 MOL      0.037915
    104 H45         4.1760   -0.8850    2.0500 hc        1 MOL      0.015842
    105 H46         2.4910   -0.9700    2.6060 hc        1 MOL      0.015842
    106 H47         0.9750    0.2120   -0.5060 hc        1 MOL      0.056832
    107 H48         0.7810   -0.0670    1.1780 hc        1 MOL      0.056832
    108 H49         1.4250    1.5040    0.7090 hc        1 MOL      0.056832
    109 H50         2.3150    1.2400    2.9540 hc        1 MOL      0.048641
    110 H51         3.8450    0.8150    3.7850 hc        1 MOL      0.048641
    111 H52         3.7560    1.6610    2.1450 hc        1 MOL      0.048641
    112 N10         5.1360   -2.8750   -0.2460 n         1 MOL     -0.256883
    113 C35         6.5320   -3.1770   -0.4540 c3        1 MOL     -0.096226
    114 C36         7.2510   -2.7180    0.7950 c         1 MOL      0.660860
    115 O17         6.8160   -2.9550    1.9140 o         1 MOL     -0.539304
    116 C37         6.6840   -4.6890   -0.6840 c3        1 MOL      0.380186
    117 C38         6.0860   -5.1900   -1.9540 c3        1 MOL     -0.224439
    118 O18         8.0500   -4.8040   -0.9290 oh        1 MOL     -0.676864
    119 H53         4.6480   -3.4110    0.4660 hn        1 MOL      0.198005
    120 H54         6.8040   -2.6120   -1.3460 h1        1 MOL      0.136902
    121 H55         6.3650   -5.3370    0.1340 h1        1 MOL      0.003796
    122 H56         8.2370   -5.6560   -1.3370 ho        1 MOL      0.405733
    123 H57         6.3930   -4.5590   -2.7810 hc        1 MOL      0.056544
    124 H58         6.4220   -6.2120   -2.1200 hc        1 MOL      0.056544
    125 H59         5.0120   -5.1510   -1.7990 hc        1 MOL      0.056544
    126 N11         8.4400   -2.0850    0.5490 n         1 MOL     -0.638948
    127 C39         9.3230   -1.7190    1.6490 c3        1 MOL      0.046758
    128 C40         9.8350   -0.2640    1.5710 c         1 MOL      0.800278
    129 O19         9.8600    0.3650    2.6240 o         1 MOL     -0.619965
    130 C41        10.5320   -2.6430    1.7790 c3        1 MOL      0.407743
    131 C42        11.2850   -2.4480    3.0930 c3        1 MOL     -0.409909
    132 O20        11.3900   -2.5680    0.6850 oh        1 MOL     -0.667699
    133 H60         8.7830   -1.8300   -0.3610 hn        1 MOL      0.322888
    134 H61         8.7040   -1.7620    2.5480 h1        1 MOL      0.085702
    135 H62        10.2160   -3.6820    1.8420 h1        1 MOL     -0.012047
    136 H63        11.9550   -3.3360    0.7840 ho        1 MOL      0.410597
    137 H64        10.5880   -2.8330    3.8330 hc        1 MOL      0.093152
    138 H65        12.2020   -3.0290    2.9840 hc        1 MOL      0.093152
    139 H66        11.4460   -1.4080    3.3650 hc        1 MOL      0.093152
    140 N12        10.0450    0.2950    0.4030 n         1 MOL     -0.606337
    141 C43        10.5100    1.6990    0.3150 c3        1 MOL      0.040873
    142 C44         9.6930    2.5410   -0.6740 c         1 MOL      0.565886
    143 O21         9.2400    2.0830   -1.7440 o         1 MOL     -0.511895
    144 C45        11.9930    1.7560    0.0080 c3        1 MOL     -0.272119
    145 C46        12.9140    1.0960    1.0900 c3        1 MOL      0.188985
    146 C47        14.4280    1.1380    0.9720 c3        1 MOL     -0.119551
    147 C48        14.6970    0.1930   -0.2200 c3        1 MOL      0.171556
    148 N13        16.0960   -0.0630   -0.4640 n4        1 MOL     -0.253366
    149 H67        10.2460   -0.3080   -0.3740 hn        1 MOL      0.339280
    150 H68        10.3390    2.2080    1.2680 h1        1 MOL      0.125417
    151 H69        12.3780    2.7630   -0.1410 hc        1 MOL      0.089042
    152 H70        12.1710    1.3010   -0.9650 hc        1 MOL      0.089042
    153 H71        12.5240    0.0870    1.2600 hc        1 MOL     -0.014656
    154 H72        12.7560    1.6700    2.0020 hc        1 MOL     -0.014656
    155 H73        14.8630    0.6960    1.8790 hc        1 MOL      0.047069
    156 H74        14.7310    2.1730    0.8230 hc        1 MOL      0.047069
    157 H75        14.2040    0.6110   -1.0960 hx        1 MOL      0.019190
    158 H76        14.2310   -0.7580    0.0050 hx        1 MOL      0.019190
    159 H77        16.5500   -0.1460    0.4310 hn        1 MOL      0.234827
    160 H78        16.1860   -0.9320   -0.9720 hn        1 MOL      0.234827
    161 H79        16.5680    0.7380   -0.8610 hn        1 MOL      0.234827
    162 N14         9.4460    3.8350   -0.3780 n         1 MOL     -0.513840
    163 C49         8.7320    4.7610   -1.3130 c3        1 MOL      0.265622
    164 C50         7.2780    4.3720   -1.2990 c         1 MOL      0.438222
    165 O22         6.7430    4.1060   -2.3690 o         1 MOL     -0.553055
    166 C51         9.0240    6.2660   -1.0180 c3        1 MOL     -0.205843
    167 C52         8.4250    7.1510   -2.1040 c3        1 MOL     -0.205705
    168 C53         8.7880    8.6120   -1.8170 c         1 MOL      0.731301
    169 O23         8.1050    9.4940   -2.3740 o         1 MOL     -0.657847
    170 O24         9.6360    8.8640   -0.8710 o         1 MOL     -0.657847
    171 H80         9.8970    4.1300    0.4760 hn        1 MOL      0.251603
    172 H81         9.0330    4.6840   -2.3570 h1        1 MOL      0.038840
    173 H82        10.0990    6.4080   -0.9330 hc        1 MOL      0.074164
    174 H83         8.4770    6.4420   -0.0890 hc        1 MOL      0.074164
    175 H84         7.3370    7.2250   -2.0990 hc        1 MOL      0.073058
    176 H85         8.8880    6.8930   -3.0600 hc        1 MOL      0.073058
    177 N15         6.5040    4.2380   -0.2030 n         1 MOL     -0.384638
    178 C54         6.7840    4.4290    1.2150 c3        1 MOL      0.073526
    179 H86         7.8510    4.6060    1.3520 h1        1 MOL      0.017414
    180 H87         6.2240    5.2890    1.5830 h1        1 MOL      0.017414
    181 H88         6.4900    3.5380    1.7680 h1        1 MOL      0.017414
    182 H89         5.7310    3.6120   -0.3560 hn        1 MOL      0.294611
    183 Ca1        -6.8470    4.5840    1.1370 Ca        1 MOL      1.704068
    184 O25        -8.5840    3.6860    3.3110 oh        1 MOL     -0.801518
    185 H90        -9.0910    3.6140    4.1210 ho        1 MOL      0.400349
    186 H91        -9.0990    3.1980    2.6620 ho        1 MOL      0.400349
@<TRIPOS>BOND
     1    1    2 1   
     2    1    4 1   
     3    1    5 1   
     4    1    6 1   
     5    2    3 2   
     6    2    7 1   
     7    7    8 1   
     8    7   15 1   
     9    8    9 1   
    10    8   11 1   
    11    8   16 1   
    12    9   10 2   
    13    9   19 1   
    14   11   12 1   
    15   11   17 1   
    16   11   18 1   
    17   12   13 1   
    18   12   14 1   
    19   19   20 1   
    20   19   28 1   
    21   20   21 1   
    22   20   23 1   
    23   20   29 1   
    24   21   22 2   
    25   21   41 1   
    26   23   24 1   
    27   23   30 1   
    28   23   31 1   
    29   24   25 1   
    30   24   32 1   
    31   24   33 1   
    32   25   26 1   
    33   25   34 1   
    34   25   35 1   
    35   26   27 1   
    36   26   36 1   
    37   26   37 1   
    38   27   38 1   
    39   27   39 1   
    40   27   40 1   
    41   41   42 1   
    42   41   49 1   
    43   42   43 1   
    44   42   45 1   
    45   42   50 1   
    46   43   44 2   
    47   43   53 1   
    48   45   46 1   
    49   45   51 1   
    50   45   52 1   
    51   46   47 1   
    52   46   48 1   
    53   53   54 1   
    54   53   57 1   
    55   54   55 1   
    56   54   58 1   
    57   54   59 1   
    58   55   56 2   
    59   55   60 1   
    60   60   61 1   
    61   60   68 1   
    62   61   62 1   
    63   61   64 1   
    64   61   69 1   
    65   62   63 2   
    66   62   72 1   
    67   64   65 1   
    68   64   70 1   
    69   64   71 1   
    70   65   66 1   
    71   65   67 1   
    72   72   73 1   
    73   72   76 1   
    74   73   74 1   
    75   73   77 1   
    76   73   78 1   
    77   74   75 2   
    78   74   79 1   
    79   79   80 1   
    80   79   86 1   
    81   80   81 1   
    82   80   83 1   
    83   80   87 1   
    84   81   82 2   
    85   81   93 1   
    86   83   84 1   
    87   83   85 1   
    88   83   88 1   
    89   84   90 1   
    90   84   91 1   
    91   84   92 1   
    92   85   89 1   
    93   93   94 1   
    94   93  101 1   
    95   94   95 1   
    96   94   97 1   
    97   94  102 1   
    98   95   96 2   
    99   95  112 1   
   100   97   98 1   
   101   97   99 1   
   102   97  103 1   
   103   98  100 1   
   104   98  104 1   
   105   98  105 1   
   106   99  106 1   
   107   99  107 1   
   108   99  108 1   
   109  100  109 1   
   110  100  110 1   
   111  100  111 1   
   112  112  113 1   
   113  112  119 1   
   114  113  114 1   
   115  113  116 1   
   116  113  120 1   
   117  114  115 2   
   118  114  126 1   
   119  116  117 1   
   120  116  118 1   
   121  116  121 1   
   122  117  123 1   
   123  117  124 1   
   124  117  125 1   
   125  118  122 1   
   126  126  127 1   
   127  126  133 1   
   128  127  128 1   
   129  127  130 1   
   130  127  134 1   
   131  128  129 2   
   132  128  140 1   
   133  130  131 1   
   134  130  132 1   
   135  130  135 1   
   136  131  137 1   
   137  131  138 1   
   138  131  139 1   
   139  132  136 1   
   140  140  141 1   
   141  140  149 1   
   142  141  142 1   
   143  141  144 1   
   144  141  150 1   
   145  142  143 2   
   146  142  162 1   
   147  144  145 1   
   148  144  151 1   
   149  144  152 1   
   150  145  146 1   
   151  145  153 1   
   152  145  154 1   
   153  146  147 1   
   154  146  155 1   
   155  146  156 1   
   156  147  148 1   
   157  147  157 1   
   158  147  158 1   
   159  148  159 1   
   160  148  160 1   
   161  148  161 1   
   162  162  163 1   
   163  162  171 1   
   164  163  164 1   
   165  163  166 1   
   166  163  172 1   
   167  164  165 2   
   168  164  177 1   
   169  166  167 1   
   170  166  173 1   
   171  166  174 1   
   172  167  168 1   
   173  167  175 1   
   174  167  176 1   
   175  168  169 1   
   176  168  170 1   
   177  177  178 1   
   178  177  182 1   
   179  178  179 1   
   180  178  180 1   
   181  178  181 1   
   182  184  185 1   
   183  184  186 1   
@<TRIPOS>SUBSTRUCTURE
     1 MOL         1 TEMP              0 ****  ****    0 ROOT
