@<TRIPOS>MOLECULE
MOL
  192   187     1     0     0
SMALL
resp


@<TRIPOS>ATOM
      1 C1          9.4110    0.6410    1.5590 c3        1 MOL     -0.528263
      2 C2          8.1640    0.3260    0.7800 c         1 MOL      0.780180
      3 O1          7.1080    0.0600    1.3600 o         1 MOL     -0.669183
      4 H1          9.1430    0.8940    2.5860 hc        1 MOL      0.132945
      5 H2         10.0680   -0.2280    1.5600 hc        1 MOL      0.132945
      6 H3          9.9230    1.4860    1.0990 hc        1 MOL      0.132945
      7 N1          8.2920    0.3770   -0.5770 n         1 MOL     -0.582253
      8 C3          7.1660    0.2900   -1.5340 c3        1 MOL      0.137196
      9 C4          6.7220   -1.1410   -1.7790 c         1 MOL      0.431706
     10 O2          6.4130   -1.5360   -2.9560 o         1 MOL     -0.442328
     11 C5          7.4170    1.1340   -2.8190 c3        1 MOL     -0.082276
     12 C6          8.7410    1.0310   -3.5570 c         1 MOL      0.667856
     13 O3          8.7320    1.3910   -4.7990 o         1 MOL     -0.635974
     14 O4          9.7370    0.6340   -2.9560 o         1 MOL     -0.635974
     15 H4          9.1830    0.5490   -1.0260 hn        1 MOL      0.264746
     16 H5          6.2970    0.6830   -1.0220 h1        1 MOL      0.051448
     17 H6          7.2930    2.1850   -2.5870 hc        1 MOL      0.028482
     18 H7          6.6630    0.7490   -3.5020 hc        1 MOL      0.028482
     19 N2          6.7800   -1.9630   -0.7570 n         1 MOL     -0.389483
     20 C7          6.3390   -3.3740   -0.9400 c3        1 MOL     -0.018996
     21 C8          4.8630   -3.6250   -1.3040 c         1 MOL      0.387268
     22 O5          4.5810   -4.5360   -2.0750 o         1 MOL     -0.542361
     23 C9          6.6680   -4.2760    0.2890 c3        1 MOL      0.014902
     24 C10         8.1120   -4.1030    0.7360 c3        1 MOL      0.039608
     25 C11         8.2420   -4.9760    1.9610 c3        1 MOL     -0.310277
     26 C12         9.7140   -5.0760    2.3300 c3        1 MOL      0.255229
     27 N3          9.9050   -5.6510    3.6360 n4        1 MOL     -0.351166
     28 H8          7.0780   -1.5430    0.1140 hn        1 MOL      0.280705
     29 H9          6.9540   -3.8050   -1.7320 h1        1 MOL      0.097742
     30 H10         6.5560   -5.3360    0.0870 hc        1 MOL      0.026993
     31 H11         5.8790   -4.0850    1.0290 hc        1 MOL      0.026993
     32 H12         8.2900   -3.0470    0.9470 hc        1 MOL      0.022979
     33 H13         8.8030   -4.3740   -0.0620 hc        1 MOL      0.022979
     34 H14         7.9500   -6.0070    1.7280 hc        1 MOL      0.097214
     35 H15         7.6790   -4.5930    2.8040 hc        1 MOL      0.097214
     36 H16        10.2180   -4.1110    2.4000 hx        1 MOL      0.029061
     37 H17        10.2940   -5.5710    1.5440 hx        1 MOL      0.029061
     38 H18         9.3890   -6.5140    3.7820 hn        1 MOL      0.272928
     39 H19        10.8990   -5.7530    3.8080 hn        1 MOL      0.272928
     40 H20         9.4940   -4.9310    4.2170 hn        1 MOL      0.272928
     41 N4          3.9120   -2.8560   -0.8830 n         1 MOL     -0.170024
     42 C13         3.8900   -1.8030    0.1270 c3        1 MOL     -0.174719
     43 C14         3.6590   -0.3420   -0.4210 c         1 MOL      0.260703
     44 O6          3.4550   -0.1040   -1.5960 o         1 MOL     -0.376891
     45 C15         2.8030   -2.1750    1.1970 c3        1 MOL     -0.100670
     46 C16         1.4410   -2.7060    0.5910 c         1 MOL      0.608004
     47 O7          1.2640   -2.8420   -0.6840 o         1 MOL     -0.616470
     48 O8          0.5120   -3.1420    1.3580 o         1 MOL     -0.616470
     49 H21         3.0280   -3.1880   -1.2210 hn        1 MOL      0.270926
     50 H22         4.8070   -1.8080    0.7140 h1        1 MOL      0.126071
     51 H23         2.5620   -1.3100    1.8240 hc        1 MOL      0.042580
     52 H24         3.1390   -2.8860    1.9530 hc        1 MOL      0.042580
     53 N5          3.6450    0.6390    0.4810 n         1 MOL     -0.161124
     54 C17         3.6340    2.0300    0.1170 c3        1 MOL     -0.172428
     55 C18         2.3260    2.6370   -0.4910 c         1 MOL      0.663907
     56 O9          1.2200    2.1120   -0.3310 o         1 MOL     -0.596277
     57 H25         3.9350    0.4170    1.4260 hn        1 MOL      0.268543
     58 H26         4.3900    2.1450   -0.6610 h1        1 MOL      0.084262
     59 H27         3.9560    2.6180    0.9740 h1        1 MOL      0.084262
     60 N6          2.4930    3.7810   -1.1660 n         1 MOL     -0.529749
     61 C19         1.4360    4.6460   -1.5920 c3        1 MOL      0.523576
     62 C20         1.8530    6.0810   -1.2450 c         1 MOL      0.447189
     63 O10         3.0450    6.4430   -1.2620 o         1 MOL     -0.510865
     64 C21         1.1130    4.4760   -3.0690 c3        1 MOL     -0.414188
     65 C22         0.8280    3.0400   -3.4890 c         1 MOL      0.682126
     66 O11         1.5510    2.5970   -4.4380 o         1 MOL     -0.599814
     67 O12        -0.0540    2.3360   -2.9070 o         1 MOL     -0.599814
     68 H28         3.4250    4.1630   -1.2790 hn        1 MOL      0.274531
     69 H29         0.5630    4.5760   -0.9400 h1        1 MOL     -0.148731
     70 H30         1.9650    4.8410   -3.6380 hc        1 MOL      0.089907
     71 H31         0.2140    5.0650   -3.2630 hc        1 MOL      0.089907
     72 N7          0.8680    7.0290   -1.0270 n         1 MOL     -0.574019
     73 C23        -0.5330    6.7770   -0.6930 c3        1 MOL      0.133499
     74 C24        -0.7930    6.0220    0.6610 c         1 MOL      0.469597
     75 O13         0.1230    5.8260    1.4670 o         1 MOL     -0.434111
     76 H32         1.1590    7.9830   -1.2090 hn        1 MOL      0.343369
     77 H33        -0.9990    6.2490   -1.5230 h1        1 MOL      0.033441
     78 H34        -1.2540    7.5860   -0.6800 h1        1 MOL      0.033441
     79 N8         -2.0440    5.5510    0.8760 n         1 MOL     -0.511016
     80 C25        -2.5060    4.7590    2.0240 c3        1 MOL     -0.016545
     81 C26        -1.6510    3.4030    2.0250 c         1 MOL      0.360283
     82 O14        -1.0600    2.9210    1.0320 o         1 MOL     -0.335388
     83 C27        -3.9840    4.6180    1.9580 c3        1 MOL      0.368036
     84 C28        -4.4290    3.8820    3.2210 c3        1 MOL     -0.489676
     85 O15        -4.3550    3.7580    0.8530 oh        1 MOL     -0.709941
     86 H35        -2.7800    5.9030    0.2920 hn        1 MOL      0.291615
     87 H36        -2.3070    5.2030    3.0040 h1        1 MOL      0.094300
     88 H37        -4.4680    5.5800    1.8570 h1        1 MOL      0.049708
     89 H38        -5.3100    3.8160    0.8480 ho        1 MOL      0.446253
     90 H39        -4.1610    2.8200    3.2470 hc        1 MOL      0.125090
     91 H40        -4.0040    4.3090    4.1280 hc        1 MOL      0.125090
     92 H41        -5.5140    3.7680    3.2010 hc        1 MOL      0.125090
     93 N9         -1.5350    2.7990    3.2120 n         1 MOL     -0.265503
     94 C29        -0.7320    1.6100    3.5780 c3        1 MOL     -0.224698
     95 C30        -1.0770    0.3280    2.7180 c         1 MOL      0.518807
     96 O16        -0.7410    0.1740    1.5730 o         1 MOL     -0.532543
     97 C31         0.8050    1.8770    3.5220 c3        1 MOL      0.178779
     98 C32         1.1910    3.1740    4.3080 c3        1 MOL      0.199273
     99 C33         1.5860    0.6410    3.9340 c3        1 MOL     -0.477110
    100 C34         2.4070    4.0180    3.7640 c3        1 MOL     -0.178340
    101 H42        -2.0070    3.2170    4.0010 hn        1 MOL      0.255485
    102 H43        -1.0390    1.4460    4.6060 h1        1 MOL      0.092149
    103 H44         1.1920    1.9550    2.5080 hc        1 MOL      0.033116
    104 H45         1.3180    2.8360    5.3420 hc        1 MOL     -0.054396
    105 H46         0.3550    3.8560    4.4760 hc        1 MOL     -0.054396
    106 H47         1.2370    0.3450    4.9260 hc        1 MOL      0.113020
    107 H48         1.3330   -0.2190    3.3200 hc        1 MOL      0.113020
    108 H49         2.6450    0.7190    3.6630 hc        1 MOL      0.113020
    109 H50         3.3760    3.5280    3.6720 hc        1 MOL      0.040246
    110 H51         2.1320    4.5990    2.8970 hc        1 MOL      0.040246
    111 H52         2.5420    4.6300    4.6610 hc        1 MOL      0.040246
    112 N10        -1.7100   -0.6110    3.3990 n         1 MOL     -0.295970
    113 C35        -2.0670   -1.9470    2.8530 c3        1 MOL     -0.167543
    114 C36        -3.5460   -2.1140    2.5930 c         1 MOL      0.350475
    115 O17        -3.9680   -3.2230    2.2500 o         1 MOL     -0.522360
    116 C37        -1.5280   -3.0490    3.8460 c3        1 MOL      0.491210
    117 C38        -2.1390   -3.0470    5.2570 c3        1 MOL     -0.190564
    118 O18        -0.1580   -2.8850    3.9630 oh        1 MOL     -0.663658
    119 H53        -2.0680   -0.4300    4.3250 hn        1 MOL      0.257277
    120 H54        -1.5370   -2.1960    1.9280 h1        1 MOL      0.097362
    121 H55        -1.7580   -4.0280    3.4390 h1        1 MOL     -0.001579
    122 H56         0.2360   -2.7820    3.0990 ho        1 MOL      0.367895
    123 H57        -1.8630   -3.9860    5.7450 hc        1 MOL      0.034004
    124 H58        -1.8340   -2.1590    5.8010 hc        1 MOL      0.034004
    125 H59        -3.2360   -3.0780    5.2840 hc        1 MOL      0.034004
    126 N11        -4.3190   -1.0430    2.6520 n         1 MOL      0.010860
    127 C39        -5.7860   -1.1040    2.5750 c3        1 MOL     -0.345945
    128 C40        -6.2270   -1.2080    1.0770 c         1 MOL      0.549326
    129 O19        -6.1120   -0.2020    0.3330 o         1 MOL     -0.488307
    130 C41        -6.4140    0.0990    3.2410 c3        1 MOL      0.429589
    131 C42        -7.9080    0.0330    3.1460 c3        1 MOL     -0.349555
    132 O20        -6.0490    0.1180    4.6230 oh        1 MOL     -0.573393
    133 H60        -3.9120   -0.2010    3.0460 hn        1 MOL      0.088157
    134 H61        -6.0860   -1.9950    3.1160 h1        1 MOL      0.138906
    135 H62        -6.1390    1.0340    2.7580 h1        1 MOL     -0.002054
    136 H63        -5.1170    0.3220    4.6100 ho        1 MOL      0.336352
    137 H64        -8.2260   -0.9170    3.5880 hc        1 MOL      0.096566
    138 H65        -8.3570    0.7790    3.8110 hc        1 MOL      0.096566
    139 H66        -8.2440    0.1820    2.1270 hc        1 MOL      0.096566
    140 N12        -6.7030   -2.3800    0.7040 n         1 MOL     -0.542631
    141 C43        -6.9570   -2.8050   -0.7160 c3        1 MOL      0.284958
    142 C44        -5.8090   -2.4070   -1.6680 c         1 MOL      0.190143
    143 O21        -5.9280   -1.5470   -2.5480 o         1 MOL     -0.389750
    144 C45        -8.3710   -2.3660   -1.1620 c3        1 MOL     -0.190144
    145 C46        -9.0360   -3.0590   -2.4060 c3        1 MOL     -0.400117
    146 C47       -10.4490   -2.5470   -2.6840 c3        1 MOL      0.142758
    147 C48       -11.1410   -3.3770   -3.7550 c3        1 MOL      0.029632
    148 N13       -12.5010   -2.9000   -4.1040 n4        1 MOL     -0.143979
    149 H67        -7.0190   -3.0050    1.4310 hn        1 MOL      0.317295
    150 H68        -7.0400   -3.8910   -0.6390 h1        1 MOL      0.040064
    151 H69        -8.3980   -1.2880   -1.3550 hc        1 MOL      0.090805
    152 H70        -8.9990   -2.6080   -0.3040 hc        1 MOL      0.090805
    153 H71        -9.0250   -4.1210   -2.1600 hc        1 MOL      0.162382
    154 H72        -8.4330   -2.7030   -3.2340 hc        1 MOL      0.162382
    155 H73       -10.4130   -1.5040   -2.9830 hc        1 MOL      0.012172
    156 H74       -11.0510   -2.5510   -1.7670 hc        1 MOL      0.012172
    157 H75       -11.2380   -4.4080   -3.3930 hx        1 MOL      0.052751
    158 H76       -10.5260   -3.3730   -4.6580 hx        1 MOL      0.052751
    159 H77       -12.9520   -2.6150   -3.2480 hn        1 MOL      0.191322
    160 H78       -12.4190   -2.0990   -4.7190 hn        1 MOL      0.191322
    161 H79       -13.0350   -3.5550   -4.6600 hn        1 MOL      0.191322
    162 N14        -4.6110   -2.9720   -1.3750 n         1 MOL     -0.430093
    163 C49        -3.4500   -2.2690   -1.8780 c3        1 MOL      0.316021
    164 C50        -2.2100   -2.2980   -1.0790 c         1 MOL      0.381132
    165 O22        -1.7940   -1.2660   -0.6220 o         1 MOL     -0.462155
    166 C51        -3.1700   -2.5350   -3.3900 c3        1 MOL     -0.287120
    167 C52        -2.1670   -1.6110   -4.0570 c3        1 MOL      0.178530
    168 C53        -2.6580   -0.1930   -4.1200 c         1 MOL      0.547370
    169 O23        -3.1180    0.3830   -5.1710 o         1 MOL     -0.601923
    170 O24        -2.6020    0.4260   -3.0530 o         1 MOL     -0.601923
    171 H80        -4.5330   -3.8210   -0.8280 hn        1 MOL      0.288453
    172 H81        -3.6510   -1.2000   -1.7920 h1        1 MOL      0.051516
    173 H82        -4.0880   -2.4480   -3.9670 hc        1 MOL      0.068782
    174 H83        -2.9090   -3.5870   -3.5280 hc        1 MOL      0.068782
    175 H84        -2.0620   -1.9370   -5.0910 hc        1 MOL     -0.049349
    176 H85        -1.2250   -1.6090   -3.5190 hc        1 MOL     -0.049349
    177 N15        -1.5210   -3.4330   -0.8800 n         1 MOL     -0.171645
    178 C54        -1.8990   -4.8290   -1.2090 c3        1 MOL     -0.236194
    179 H86        -1.2180   -5.5170   -0.7080 h1        1 MOL      0.084450
    180 H87        -2.9190   -5.0190   -0.8740 h1        1 MOL      0.084450
    181 H88        -1.8370   -4.9790   -2.2870 h1        1 MOL      0.084450
    182 H89        -0.7130   -3.3330   -0.2840 hn        1 MOL      0.278729
    183 Ca1        -1.2340    1.1810   -0.9520 Ca        1 MOL      1.675306
    184 O25         0.7200   -0.5500   -2.0770 oh        1 MOL     -0.931494
    185 H90         0.7510   -1.4590   -1.7760 ho        1 MOL      0.437190
    186 H91         1.6420   -0.2880   -2.1360 ho        1 MOL      0.437190
    187 O26        -2.7380    3.3400   -1.8270 oh        1 MOL     -0.931494
    188 H92        -2.6810    3.8810   -2.6060 ho        1 MOL      0.437190
    189 H93        -3.4660    3.7020   -1.3290 ho        1 MOL      0.437190
    190 O27        -3.6360    1.2180    0.2850 oh        1 MOL     -0.931494
    191 H94        -4.0130    2.0590    0.5170 ho        1 MOL      0.437190
    192 H95        -4.3930    0.6490    0.0980 ho        1 MOL      0.437190
@<TRIPOS>BOND
     1    1    2 1   
     2    1    4 1   
     3    1    5 1   
     4    1    6 1   
     5    2    3 2   
     6    2    7 1   
     7    7    8 1   
     8    7   15 1   
     9    8    9 1   
    10    8   11 1   
    11    8   16 1   
    12    9   10 2   
    13    9   19 1   
    14   11   12 1   
    15   11   17 1   
    16   11   18 1   
    17   12   13 1   
    18   12   14 1   
    19   19   20 1   
    20   19   28 1   
    21   20   21 1   
    22   20   23 1   
    23   20   29 1   
    24   21   22 2   
    25   21   41 1   
    26   23   24 1   
    27   23   30 1   
    28   23   31 1   
    29   24   25 1   
    30   24   32 1   
    31   24   33 1   
    32   25   26 1   
    33   25   34 1   
    34   25   35 1   
    35   26   27 1   
    36   26   36 1   
    37   26   37 1   
    38   27   38 1   
    39   27   39 1   
    40   27   40 1   
    41   41   42 1   
    42   41   49 1   
    43   42   43 1   
    44   42   45 1   
    45   42   50 1   
    46   43   44 2   
    47   43   53 1   
    48   45   46 1   
    49   45   51 1   
    50   45   52 1   
    51   46   47 1   
    52   46   48 1   
    53   53   54 1   
    54   53   57 1   
    55   54   55 1   
    56   54   58 1   
    57   54   59 1   
    58   55   56 2   
    59   55   60 1   
    60   60   61 1   
    61   60   68 1   
    62   61   62 1   
    63   61   64 1   
    64   61   69 1   
    65   62   63 2   
    66   62   72 1   
    67   64   65 1   
    68   64   70 1   
    69   64   71 1   
    70   65   66 1   
    71   65   67 1   
    72   72   73 1   
    73   72   76 1   
    74   73   74 1   
    75   73   77 1   
    76   73   78 1   
    77   74   75 2   
    78   74   79 1   
    79   79   80 1   
    80   79   86 1   
    81   80   81 1   
    82   80   83 1   
    83   80   87 1   
    84   81   82 2   
    85   81   93 1   
    86   83   84 1   
    87   83   85 1   
    88   83   88 1   
    89   84   90 1   
    90   84   91 1   
    91   84   92 1   
    92   85   89 1   
    93   93   94 1   
    94   93  101 1   
    95   94   95 1   
    96   94   97 1   
    97   94  102 1   
    98   95   96 2   
    99   95  112 1   
   100   97   98 1   
   101   97   99 1   
   102   97  103 1   
   103   98  100 1   
   104   98  104 1   
   105   98  105 1   
   106   99  106 1   
   107   99  107 1   
   108   99  108 1   
   109  100  109 1   
   110  100  110 1   
   111  100  111 1   
   112  112  113 1   
   113  112  119 1   
   114  113  114 1   
   115  113  116 1   
   116  113  120 1   
   117  114  115 2   
   118  114  126 1   
   119  116  117 1   
   120  116  118 1   
   121  116  121 1   
   122  117  123 1   
   123  117  124 1   
   124  117  125 1   
   125  118  122 1   
   126  126  127 1   
   127  126  133 1   
   128  127  128 1   
   129  127  130 1   
   130  127  134 1   
   131  128  129 2   
   132  128  140 1   
   133  130  131 1   
   134  130  132 1   
   135  130  135 1   
   136  131  137 1   
   137  131  138 1   
   138  131  139 1   
   139  132  136 1   
   140  140  141 1   
   141  140  149 1   
   142  141  142 1   
   143  141  144 1   
   144  141  150 1   
   145  142  143 2   
   146  142  162 1   
   147  144  145 1   
   148  144  151 1   
   149  144  152 1   
   150  145  146 1   
   151  145  153 1   
   152  145  154 1   
   153  146  147 1   
   154  146  155 1   
   155  146  156 1   
   156  147  148 1   
   157  147  157 1   
   158  147  158 1   
   159  148  159 1   
   160  148  160 1   
   161  148  161 1   
   162  162  163 1   
   163  162  171 1   
   164  163  164 1   
   165  163  166 1   
   166  163  172 1   
   167  164  165 2   
   168  164  177 1   
   169  166  167 1   
   170  166  173 1   
   171  166  174 1   
   172  167  168 1   
   173  167  175 1   
   174  167  176 1   
   175  168  169 1   
   176  168  170 1   
   177  177  178 1   
   178  177  182 1   
   179  178  179 1   
   180  178  180 1   
   181  178  181 1   
   182  184  185 1   
   183  184  186 1   
   184  187  188 1   
   185  187  189 1   
   186  190  191 1   
   187  190  192 1   
@<TRIPOS>SUBSTRUCTURE
     1 MOL         1 TEMP              0 ****  ****    0 ROOT
