@<TRIPOS>MOLECULE
MOL
  181   177     1     0     0
SMALL
resp


@<TRIPOS>ATOM
      1 C1         -3.0800   -5.0340   -4.5140 c3        1 MOL     -0.400352
      2 C2         -3.9990   -5.1120   -3.3470 c         1 MOL      0.781778
      3 O1         -3.7500   -5.8990   -2.4510 o         1 MOL     -0.580142
      4 H1         -2.8780   -6.0400   -4.8840 hc        1 MOL      0.093019
      5 H2         -3.5440   -4.4430   -5.3030 hc        1 MOL      0.093019
      6 H3         -2.1450   -4.5650   -4.2090 hc        1 MOL      0.093019
      7 N1         -5.1440   -4.2800   -3.3170 n         1 MOL     -0.716643
      8 C3         -6.0420   -4.2990   -2.2110 c3        1 MOL      0.203824
      9 C4         -5.4560   -3.6740   -0.9250 c         1 MOL      0.661667
     10 O2         -4.6360   -2.7670   -1.0430 o         1 MOL     -0.572197
     11 C5         -7.3950   -3.6350   -2.6110 c3        1 MOL     -0.319279
     12 C6         -7.9540   -4.1190   -3.9660 c         1 MOL      0.743913
     13 O3         -7.9340   -5.3520   -4.3120 o         1 MOL     -0.730431
     14 O4         -8.5820   -3.3770   -4.7000 o         1 MOL     -0.730431
     15 H4         -5.3020   -3.7130   -4.1290 hn        1 MOL      0.365165
     16 H5         -6.2940   -5.3520   -2.0690 h1        1 MOL     -0.003867
     17 H6         -7.2920   -2.5420   -2.6110 hc        1 MOL      0.061865
     18 H7         -8.0650   -3.9140   -1.7970 hc        1 MOL      0.061865
     19 N2         -6.0040   -3.9330    0.2260 n         1 MOL     -0.717309
     20 C7         -5.7740   -3.3310    1.5020 c3        1 MOL      0.484129
     21 C8         -4.5520   -3.9220    2.2040 c         1 MOL      0.547955
     22 O5         -4.2550   -5.1030    1.9450 o         1 MOL     -0.548980
     23 C9         -7.0490   -3.3420    2.2510 c3        1 MOL     -0.358447
     24 H8         -6.6040   -4.7460    0.2150 hn        1 MOL      0.309410
     25 H9         -5.5210   -2.3130    1.2270 h1        1 MOL      0.063113
     26 H10        -7.1150   -4.2850    2.7900 hc        1 MOL      0.077816
     27 H11        -7.1240   -2.4990    2.9330 hc        1 MOL      0.077816
     28 H12        -7.8870   -3.2070    1.5670 hc        1 MOL      0.077816
     29 N3         -3.8130   -3.1670    3.0990 n         1 MOL     -0.567458
     30 C10        -4.2790   -1.9480    3.7490 c3        1 MOL      0.027907
     31 C11        -4.0920   -0.6710    2.8420 c         1 MOL      0.332947
     32 O6         -3.2710   -0.6630    1.9400 o         1 MOL     -0.448837
     33 C12        -3.6050   -1.8210    5.1350 c3        1 MOL     -0.127147
     34 C13        -2.1220   -1.8300    5.1040 c         1 MOL      0.689382
     35 O7         -1.5470   -1.8130    6.2020 o         1 MOL     -0.686100
     36 O8         -1.4580   -1.8820    4.0360 o         1 MOL     -0.686100
     37 H13        -2.9230   -3.5370    3.3920 hn        1 MOL      0.355141
     38 H14        -5.3600   -1.9490    3.8600 h1        1 MOL      0.047851
     39 H15        -3.9850   -2.6480    5.7420 hc        1 MOL      0.050573
     40 H16        -3.9290   -0.9650    5.7280 hc        1 MOL      0.050573
     41 N4         -4.9190    0.4370    3.0940 n         1 MOL     -0.547230
     42 C14        -4.8230    1.5600    2.0930 c3        1 MOL      0.172650
     43 C15        -5.5640    1.2120    0.7200 c         1 MOL      0.491543
     44 O9         -5.7530    0.0370    0.3880 o         1 MOL     -0.448315
     45 H17        -5.4690    0.5350    3.9390 hn        1 MOL      0.341585
     46 H18        -3.8210    1.8960    1.8160 h1        1 MOL     -0.007312
     47 H19        -5.3040    2.4400    2.5040 h1        1 MOL     -0.007312
     48 N5         -5.8170    2.1850   -0.2110 n         1 MOL     -0.530350
     49 C16        -5.7430    3.6600   -0.1350 c3        1 MOL      0.096366
     50 C17        -4.8510    4.2150   -1.2140 c         1 MOL      0.677776
     51 O10        -4.8100    5.4130   -1.4160 o         1 MOL     -0.561537
     52 C18        -7.1700    4.3800   -0.0200 c3        1 MOL     -0.401162
     53 C19        -8.0530    3.7700    1.0810 c         1 MOL      0.762375
     54 N6         -7.7510    3.9100    2.3470 n         1 MOL     -0.821926
     55 O11        -9.0290    3.0960    0.8210 o         1 MOL     -0.556571
     56 H20        -6.1940    1.7390   -1.0390 hn        1 MOL      0.330991
     57 H21        -5.1630    4.0150    0.7170 h1        1 MOL      0.044342
     58 H22        -7.6420    4.1580   -0.9760 hc        1 MOL      0.123081
     59 H23        -7.0070    5.4420    0.1750 hc        1 MOL      0.123081
     60 H24        -6.9180    4.4150    2.6430 hn        1 MOL      0.367930
     61 H25        -8.2450    3.3550    3.0350 hn        1 MOL      0.367930
     62 N7         -4.2070    3.3480   -1.9580 n         1 MOL     -0.441635
     63 C20        -3.5480    3.5560   -3.2360 c3        1 MOL     -0.143222
     64 C21        -2.3690    4.4590   -3.2610 c         1 MOL      0.500304
     65 O12        -2.0450    5.0260   -4.2830 o         1 MOL     -0.528472
     66 H26        -4.4440    2.3700   -1.8430 hn        1 MOL      0.299089
     67 H27        -4.2900    3.9040   -3.9620 h1        1 MOL      0.120558
     68 H28        -3.1950    2.5800   -3.5430 h1        1 MOL      0.120558
     69 N8         -1.7580    4.7650   -2.0730 n         1 MOL     -0.155347
     70 C22        -0.4650    5.3070   -1.8650 c3        1 MOL     -0.050655
     71 C23         0.5420    4.3070   -1.2870 c         1 MOL      0.604838
     72 O13         0.1180    3.1760   -0.9870 o         1 MOL     -0.582354
     73 C24        -0.4680    6.7420   -1.2130 c3        1 MOL      0.423430
     74 C25        -1.1710    7.7550   -2.0910 c3        1 MOL     -0.342927
     75 O14        -1.1000    6.7950    0.0050 oh        1 MOL     -0.622798
     76 H29        -2.1540    4.3700   -1.2340 hn        1 MOL      0.106017
     77 H30        -0.0590    5.5380   -2.8430 h1        1 MOL      0.043638
     78 H31         0.5410    7.1530   -1.1060 h1        1 MOL     -0.037695
     79 H32        -0.5870    6.3020    0.6560 ho        1 MOL      0.393383
     80 H33        -2.2000    7.3940   -2.1560 hc        1 MOL      0.090777
     81 H34        -1.0820    8.7550   -1.6640 hc        1 MOL      0.090777
     82 H35        -0.6450    7.7230   -3.0420 hc        1 MOL      0.090777
     83 N9          1.8270    4.6770   -1.3080 n         1 MOL     -0.523216
     84 C26         2.8560    3.6200   -1.1460 c3        1 MOL     -0.032933
     85 C27         3.2640    3.6000    0.3370 c         1 MOL      0.446342
     86 O15         3.5400    4.5780    0.9660 o         1 MOL     -0.550490
     87 C28         4.0280    3.9330   -2.0840 c3        1 MOL      0.043203
     88 C29         5.0940    2.7780   -1.9560 c3        1 MOL      0.192340
     89 C30         3.5690    4.0360   -3.5570 c3        1 MOL     -0.209376
     90 C31         6.3120    2.9510   -2.9350 c3        1 MOL     -0.228899
     91 H36         2.1170    5.6420   -1.2890 hn        1 MOL      0.301205
     92 H37         2.4140    2.6270   -1.2620 h1        1 MOL      0.223936
     93 H38         4.4390    4.8960   -1.8190 hc        1 MOL      0.040623
     94 H39         4.6220    1.8190   -2.1740 hc        1 MOL     -0.060934
     95 H40         5.4370    2.7000   -0.9250 hc        1 MOL     -0.060934
     96 H41         4.4280    4.0990   -4.2190 hc        1 MOL      0.046191
     97 H42         2.9420    3.2090   -3.8820 hc        1 MOL      0.046191
     98 H43         3.0200    4.9710   -3.6990 hc        1 MOL      0.046191
     99 H44         7.1040    2.3070   -2.5500 hc        1 MOL      0.046315
    100 H45         6.0180    2.5710   -3.9140 hc        1 MOL      0.046315
    101 H46         6.6800    3.9710   -2.9010 hc        1 MOL      0.046315
    102 N10         3.5320    2.4280    0.8740 n         1 MOL     -0.111832
    103 C32         4.2350    2.2450    2.1750 c3        1 MOL     -0.041035
    104 C33         5.4290    1.2700    2.2200 c         1 MOL      0.414990
    105 O16         6.2670    1.3400    3.1130 o         1 MOL     -0.555528
    106 C34         3.2780    1.7710    3.2120 c3        1 MOL      0.096225
    107 C35         1.8650    2.3630    3.1990 c         1 MOL      0.521566
    108 O17         0.9090    1.5640    3.1080 o         1 MOL     -0.662638
    109 O18         1.6780    3.6040    3.2540 o         1 MOL     -0.662638
    110 H47         3.2780    1.5910    0.3710 hn        1 MOL      0.099535
    111 H48         4.5830    3.2270    2.4910 h1        1 MOL      0.091879
    112 H49         3.7420    1.9140    4.1890 hc        1 MOL     -0.017888
    113 H50         3.1610    0.6900    3.0920 hc        1 MOL     -0.017888
    114 N11         5.5830    0.5130    1.1450 n         1 MOL     -0.233456
    115 C36         6.6210   -0.4980    0.9490 c3        1 MOL      0.423424
    116 C37         6.0120   -1.8050    0.3250 c         1 MOL      0.415788
    117 O19         6.4390   -2.1560   -0.7880 o         1 MOL     -0.520244
    118 C38         7.7670    0.1340    0.1820 c3        1 MOL     -0.347547
    119 C39         9.1050   -0.6850    0.2570 ca        1 MOL      0.164919
    120 C40         9.8970   -0.6000    1.4070 ca        1 MOL     -0.204515
    121 C41         9.4510   -1.5500   -0.7580 ca        1 MOL     -0.204515
    122 C42        10.9800   -1.4890    1.6400 ca        1 MOL     -0.086060
    123 C43        10.5460   -2.3980   -0.6000 ca        1 MOL     -0.086060
    124 C44        11.2800   -2.3830    0.5910 ca        1 MOL     -0.148083
    125 H51         4.8080    0.5190    0.4860 hn        1 MOL      0.094600
    126 H52         6.9890   -0.7860    1.9350 h1        1 MOL     -0.036092
    127 H53         7.9860    1.0560    0.7130 hc        1 MOL      0.100069
    128 H54         7.4360    0.2770   -0.8540 hc        1 MOL      0.100069
    129 H55         9.6850    0.0800    2.2200 ha        1 MOL      0.133727
    130 H56         8.7750   -1.6950   -1.5990 ha        1 MOL      0.133727
    131 H57        11.5660   -1.4650    2.5430 ha        1 MOL      0.096581
    132 H58        10.9820   -2.8550   -1.4840 ha        1 MOL      0.096581
    133 H59        12.1230   -3.0460    0.6550 ha        1 MOL      0.091171
    134 N12         5.0420   -2.4230    0.9560 n         1 MOL     -0.328874
    135 C45         4.4390   -3.7350    0.4350 c3        1 MOL      0.148727
    136 C46         3.9240   -3.7280   -0.9720 c         1 MOL      0.172910
    137 O20         3.8410   -4.7910   -1.5930 o         1 MOL     -0.477583
    138 C47         3.3460   -4.1880    1.3740 c3        1 MOL     -0.144277
    139 C48         3.7400   -3.4320    2.6690 c3        1 MOL      0.035837
    140 C49         4.2980   -2.1470    2.1520 c3        1 MOL      0.006347
    141 H60         5.2300   -4.4830    0.4700 h1        1 MOL      0.074989
    142 H61         2.3530   -3.8560    1.0740 hc        1 MOL      0.075135
    143 H62         3.4240   -5.2720    1.4840 hc        1 MOL      0.075135
    144 H63         2.9450   -3.3100    3.4020 hc        1 MOL      0.004878
    145 H64         4.4120   -4.0210    3.2940 hc        1 MOL      0.004878
    146 H65         3.4460   -1.4890    1.9710 h1        1 MOL      0.048565
    147 H66         4.9300   -1.6690    2.8910 h1        1 MOL      0.048565
    148 N13         3.5780   -2.5410   -1.4370 n         1 MOL     -0.042824
    149 C50         2.9380   -2.4000   -2.7880 c3        1 MOL     -0.150009
    150 C51         3.9470   -2.7740   -3.8750 c         1 MOL      0.439207
    151 O21         3.5900   -3.3270   -4.9330 o         1 MOL     -0.532657
    152 C52         2.6680   -0.9630   -3.1150 c3        1 MOL      0.079558
    153 C53         1.6690   -0.1460   -2.2480 c3        1 MOL     -0.076155
    154 C54         1.9090   -0.2930   -0.7590 c         1 MOL      0.564952
    155 O22         0.9590   -0.7080   -0.0020 o         1 MOL     -0.691940
    156 O23         3.0870   -0.0140   -0.3270 o         1 MOL     -0.691940
    157 H67         3.4360   -1.7610   -0.8040 hn        1 MOL      0.315506
    158 H68         2.0580   -3.0450   -2.8960 h1        1 MOL      0.122593
    159 H69         2.4400   -0.8540   -4.1720 hc        1 MOL     -0.004821
    160 H70         3.6110   -0.4600   -2.8790 hc        1 MOL     -0.004821
    161 H71         0.6770   -0.5430   -2.4540 hc        1 MOL      0.026537
    162 H72         1.6880    0.8990   -2.5320 hc        1 MOL      0.026537
    163 N14         5.1980   -2.2990   -3.6820 n         1 MOL     -0.111302
    164 C55         6.2900   -2.5000   -4.6640 c3        1 MOL     -0.391665
    165 H73         6.2950   -3.5380   -4.9940 h1        1 MOL      0.133710
    166 H74         6.1320   -1.8470   -5.5230 h1        1 MOL      0.133710
    167 H75         7.2460   -2.2630   -4.1980 h1        1 MOL      0.133710
    168 H76         5.4630   -1.8250   -2.8190 hn        1 MOL      0.200550
    169 Ca1        -0.5840   -0.4180    2.0320 Ca        1 MOL      1.846061
    170 O24         1.1680   -1.2400    3.8570 oh        1 MOL     -0.943146
    171 H77         0.4940   -1.7660    4.2920 ho        1 MOL      0.443853
    172 H78         1.8730   -1.1620    4.5010 ho        1 MOL      0.443853
    173 O25        -1.8260    1.2670    3.9310 oh        1 MOL     -0.943146
    174 H79        -1.1280    1.9020    4.1090 ho        1 MOL      0.443853
    175 H80        -2.5730    1.5770    4.4360 ho        1 MOL      0.443853
    176 O26        -1.2490    1.7870    0.6760 oh        1 MOL     -0.943146
    177 H81        -0.5960    2.2680    0.1620 ho        1 MOL      0.443853
    178 H82        -1.9390    2.4270    0.8440 ho        1 MOL      0.443853
    179 O27        -0.5090   -3.1190    1.7110 oh        1 MOL     -0.943146
    180 H83        -0.6230   -3.5140    0.8450 ho        1 MOL      0.443853
    181 H84        -0.3230   -3.8590    2.2870 ho        1 MOL      0.443853
@<TRIPOS>BOND
     1    1    2 1   
     2    1    4 1   
     3    1    5 1   
     4    1    6 1   
     5    2    3 2   
     6    2    7 1   
     7    7    8 1   
     8    7   15 1   
     9    8    9 1   
    10    8   11 1   
    11    8   16 1   
    12    9   10 2   
    13    9   19 1   
    14   11   12 1   
    15   11   17 1   
    16   11   18 1   
    17   12   13 1   
    18   12   14 1   
    19   19   20 1   
    20   19   24 1   
    21   20   21 1   
    22   20   23 1   
    23   20   25 1   
    24   21   22 2   
    25   21   29 1   
    26   23   26 1   
    27   23   27 1   
    28   23   28 1   
    29   29   30 1   
    30   29   37 1   
    31   30   31 1   
    32   30   33 1   
    33   30   38 1   
    34   31   32 2   
    35   31   41 1   
    36   33   34 1   
    37   33   39 1   
    38   33   40 1   
    39   34   35 1   
    40   34   36 1   
    41   41   42 1   
    42   41   45 1   
    43   42   43 1   
    44   42   46 1   
    45   42   47 1   
    46   43   44 2   
    47   43   48 1   
    48   48   49 1   
    49   48   56 1   
    50   49   50 1   
    51   49   52 1   
    52   49   57 1   
    53   50   51 2   
    54   50   62 1   
    55   52   53 1   
    56   52   58 1   
    57   52   59 1   
    58   53   54 1   
    59   53   55 2   
    60   54   60 1   
    61   54   61 1   
    62   62   63 1   
    63   62   66 1   
    64   63   64 1   
    65   63   67 1   
    66   63   68 1   
    67   64   65 2   
    68   64   69 1   
    69   69   70 1   
    70   69   76 1   
    71   70   71 1   
    72   70   73 1   
    73   70   77 1   
    74   71   72 2   
    75   71   83 1   
    76   73   74 1   
    77   73   75 1   
    78   73   78 1   
    79   74   80 1   
    80   74   81 1   
    81   74   82 1   
    82   75   79 1   
    83   83   84 1   
    84   83   91 1   
    85   84   85 1   
    86   84   87 1   
    87   84   92 1   
    88   85   86 2   
    89   85  102 1   
    90   87   88 1   
    91   87   89 1   
    92   87   93 1   
    93   88   90 1   
    94   88   94 1   
    95   88   95 1   
    96   89   96 1   
    97   89   97 1   
    98   89   98 1   
    99   90   99 1   
   100   90  100 1   
   101   90  101 1   
   102  102  103 1   
   103  102  110 1   
   104  103  104 1   
   105  103  106 1   
   106  103  111 1   
   107  104  105 2   
   108  104  114 1   
   109  106  107 1   
   110  106  112 1   
   111  106  113 1   
   112  107  108 1   
   113  107  109 1   
   114  114  115 1   
   115  114  125 1   
   116  115  116 1   
   117  115  118 1   
   118  115  126 1   
   119  116  117 2   
   120  116  134 1   
   121  118  119 1   
   122  118  127 1   
   123  118  128 1   
   124  119  120 ar  
   125  119  121 ar  
   126  120  122 ar  
   127  120  129 1   
   128  121  123 ar  
   129  121  130 1   
   130  122  124 ar  
   131  122  131 1   
   132  123  124 ar  
   133  123  132 1   
   134  124  133 1   
   135  134  135 1   
   136  134  140 1   
   137  135  136 1   
   138  135  138 1   
   139  135  141 1   
   140  136  137 2   
   141  136  148 1   
   142  138  139 1   
   143  138  142 1   
   144  138  143 1   
   145  139  140 1   
   146  139  144 1   
   147  139  145 1   
   148  140  146 1   
   149  140  147 1   
   150  148  149 1   
   151  148  157 1   
   152  149  150 1   
   153  149  152 1   
   154  149  158 1   
   155  150  151 2   
   156  150  163 1   
   157  152  153 1   
   158  152  159 1   
   159  152  160 1   
   160  153  154 1   
   161  153  161 1   
   162  153  162 1   
   163  154  155 1   
   164  154  156 1   
   165  163  164 1   
   166  163  168 1   
   167  164  165 1   
   168  164  166 1   
   169  164  167 1   
   170  170  171 1   
   171  170  172 1   
   172  173  174 1   
   173  173  175 1   
   174  176  177 1   
   175  176  178 1   
   176  179  180 1   
   177  179  181 1   
@<TRIPOS>SUBSTRUCTURE
     1 MOL         1 TEMP              0 ****  ****    0 ROOT
