@<TRIPOS>MOLECULE
MOL
  178   175     1     0     0
SMALL
resp


@<TRIPOS>ATOM
      1 C1          1.7440   -7.2270    3.3140 c3        1 MOL     -0.397562
      2 C2          3.0140   -6.5140    2.7230 c         1 MOL      0.707470
      3 O1          3.6040   -7.1320    1.8390 o         1 MOL     -0.570542
      4 H1          1.1870   -6.5230    3.9310 hc        1 MOL      0.095090
      5 H2          1.1100   -7.5760    2.4990 hc        1 MOL      0.095090
      6 H3          2.0540   -8.0770    3.9230 hc        1 MOL      0.095090
      7 N1          3.4900   -5.4110    3.3150 n         1 MOL     -0.581203
      8 C3          4.7810   -4.8320    2.8750 c3        1 MOL      0.126774
      9 C4          4.6960   -4.1900    1.5120 c         1 MOL      0.384939
     10 O2          4.0190   -3.2110    1.3250 o         1 MOL     -0.420308
     11 C5          5.3530   -3.8150    3.8630 c3        1 MOL     -0.253214
     12 C6          6.6470   -3.1070    3.2920 c         1 MOL      0.688084
     13 O3          6.6020   -1.8550    3.0150 o         1 MOL     -0.707879
     14 O4          7.5440   -3.8840    2.9850 o         1 MOL     -0.707879
     15 H4          3.0740   -4.9590    4.1240 hn        1 MOL      0.322731
     16 H5          5.5110   -5.6420    2.9220 h1        1 MOL      0.068266
     17 H6          5.7560   -4.2920    4.7590 hc        1 MOL      0.024044
     18 H7          4.6220   -3.0560    4.1620 hc        1 MOL      0.024044
     19 N2          5.2460   -4.8260    0.4790 n         1 MOL     -0.240548
     20 C7          5.1190   -4.4010   -0.9310 c3        1 MOL      0.138895
     21 C8          3.6670   -4.5350   -1.3720 c         1 MOL      0.532982
     22 O5          2.9350   -5.4590   -0.9370 o         1 MOL     -0.566632
     23 C9          6.1360   -5.1750   -1.7590 c3        1 MOL     -0.456436
     24 H8          5.6500   -5.7420    0.6660 hn        1 MOL      0.228664
     25 H9          5.2420   -3.3220   -0.9250 h1        1 MOL      0.083714
     26 H10         6.0610   -6.2360   -1.5310 hc        1 MOL      0.126211
     27 H11         5.8200   -5.0660   -2.7980 hc        1 MOL      0.126211
     28 H12         7.1490   -4.8150   -1.5720 hc        1 MOL      0.126211
     29 N3          3.1920   -3.7500   -2.3100 n         1 MOL     -0.348367
     30 C10         3.8280   -2.6980   -3.1020 c3        1 MOL      0.113655
     31 C11         4.0090   -1.3490   -2.3360 c         1 MOL      0.265954
     32 O6          3.2800   -0.9830   -1.4250 o         1 MOL     -0.479648
     33 C12         2.9560   -2.5510   -4.3200 c3        1 MOL     -0.363683
     34 C13         1.4070   -2.2110   -4.1950 c         1 MOL      0.778760
     35 O7          1.0980   -1.1710   -3.5760 o         1 MOL     -0.688278
     36 O8          0.5180   -3.0460   -4.4630 o         1 MOL     -0.688278
     37 H13         2.2030   -3.8370   -2.4880 hn        1 MOL      0.233086
     38 H14         4.7940   -3.0130   -3.4940 h1        1 MOL      0.070463
     39 H15         2.9930   -3.4670   -4.9230 hc        1 MOL      0.068977
     40 H16         3.4090   -1.7080   -4.8210 hc        1 MOL      0.068977
     41 N4          4.9460   -0.6240   -2.8230 n         1 MOL     -0.250642
     42 C14         5.4110    0.5850   -2.1960 c3        1 MOL      0.027539
     43 C15         6.4140    1.4220   -3.0760 c         1 MOL      0.492621
     44 O9          7.0940    0.8660   -3.9460 o         1 MOL     -0.544783
     45 H17         5.4260   -1.0000   -3.6280 hn        1 MOL      0.234660
     46 H18         5.9650    0.3930   -1.2780 h1        1 MOL      0.078745
     47 H19         4.5420    1.1590   -1.8650 h1        1 MOL      0.078745
     48 N5          6.5770    2.7030   -2.8320 n         1 MOL     -0.481679
     49 C16         5.6250    3.5190   -1.9740 c3        1 MOL      0.091408
     50 C17         5.8610    3.3850   -0.4850 c         1 MOL      0.505217
     51 O10         7.0470    3.1330   -0.1910 o         1 MOL     -0.526459
     52 C18         5.7270    5.0070   -2.4530 c3        1 MOL     -0.369546
     53 C19         4.6790    5.9690   -1.9360 c         1 MOL      0.607841
     54 N6          3.4330    5.6110   -1.9130 n         1 MOL     -0.626461
     55 O11         4.9590    7.1290   -1.7080 o         1 MOL     -0.558027
     56 H20         7.3690    3.1300   -3.2860 hn        1 MOL      0.336992
     57 H21         4.5800    3.2520   -2.1300 h1        1 MOL      0.071149
     58 H22         5.6410    4.8390   -3.5140 hc        1 MOL      0.138107
     59 H23         6.7220    5.4050   -2.2270 hc        1 MOL      0.138107
     60 H24         3.1310    4.6770   -2.1720 hn        1 MOL      0.302840
     61 H25         2.7500    6.2290   -1.5050 hn        1 MOL      0.302840
     62 N7          4.8800    3.5160    0.3760 n         1 MOL     -0.187460
     63 C20         5.0340    3.4390    1.8010 c3        1 MOL     -0.393908
     64 C21         3.9800    4.2230    2.6130 c         1 MOL      0.734078
     65 O12         4.2250    4.9900    3.4620 o         1 MOL     -0.567383
     66 H26         3.9370    3.6310    0.0400 hn        1 MOL      0.149592
     67 H27         6.0090    3.8980    1.9760 h1        1 MOL      0.173489
     68 H28         4.9440    2.3860    2.0560 h1        1 MOL      0.173489
     69 N8          2.7600    3.9750    2.2890 n         1 MOL     -0.575709
     70 C22         1.6040    4.7140    2.7830 c3        1 MOL      0.122261
     71 C23         0.4280    3.7480    2.7130 c         1 MOL      0.508628
     72 O13         0.6300    2.6280    2.2340 o         1 MOL     -0.499569
     73 C24         1.3030    5.9770    1.9370 c3        1 MOL      0.054379
     74 C25         2.3570    7.0990    2.1740 c3        1 MOL     -0.360795
     75 O14         1.1440    5.6010    0.5980 oh        1 MOL     -0.452668
     76 H29         2.6300    3.2860    1.5640 hn        1 MOL      0.346349
     77 H30         1.7440    4.9540    3.8400 h1        1 MOL      0.094127
     78 H31         0.4180    6.4560    2.3520 h1        1 MOL      0.045789
     79 H32         1.0470    6.3680    0.0320 ho        1 MOL      0.404495
     80 H33         2.4770    7.3210    3.2400 hc        1 MOL      0.113314
     81 H34         3.3040    6.7210    1.7880 hc        1 MOL      0.113314
     82 H35         2.1490    8.0470    1.6700 hc        1 MOL      0.113314
     83 N9         -0.8190    4.1560    2.9720 n         1 MOL     -0.559175
     84 C26        -1.9650    3.4900    2.3500 c3        1 MOL      0.009251
     85 C27        -2.1430    3.9120    0.9110 c         1 MOL      0.463419
     86 O15        -2.2190    5.1450    0.6590 o         1 MOL     -0.586129
     87 C28        -3.2140    3.6280    3.2640 c3        1 MOL      0.313257
     88 C29        -4.3690    2.6710    2.7850 c3        1 MOL      0.031488
     89 C30        -2.9120    3.4020    4.7750 c3        1 MOL     -0.333932
     90 C31        -5.7680    2.9490    3.3650 c3        1 MOL     -0.329401
     91 H36        -0.8840    5.1040    3.3080 hn        1 MOL      0.311901
     92 H37        -1.6870    2.4370    2.3360 h1        1 MOL      0.149766
     93 H38        -3.5510    4.6700    3.2150 hc        1 MOL     -0.051314
     94 H39        -4.1420    1.6240    2.9890 hc        1 MOL      0.010944
     95 H40        -4.5130    2.8570    1.7230 hc        1 MOL      0.010944
     96 H41        -2.4760    2.4060    4.8680 hc        1 MOL      0.068128
     97 H42        -2.1920    4.1630    5.0820 hc        1 MOL      0.068128
     98 H43        -3.8120    3.3910    5.3840 hc        1 MOL      0.068128
     99 H44        -6.5360    2.5630    2.6920 hc        1 MOL      0.072275
    100 H45        -5.7590    2.4330    4.3250 hc        1 MOL      0.072275
    101 H46        -5.9710    3.9700    3.6830 hc        1 MOL      0.072275
    102 N10        -2.4260    2.9900   -0.0290 n         1 MOL     -0.283085
    103 C32        -2.7040    3.3190   -1.4770 c3        1 MOL      0.005533
    104 C33        -3.7730    2.4960   -2.0980 c         1 MOL      0.342275
    105 O16        -4.1420    2.8820   -3.2680 o         1 MOL     -0.542101
    106 C34        -1.4860    3.1240   -2.3290 c3        1 MOL     -0.109970
    107 C35        -0.7110    1.7780   -2.1480 c         1 MOL      0.673388
    108 O17        -1.2530    0.7050   -2.4810 o         1 MOL     -0.750811
    109 O18         0.3060    1.7810   -1.4480 o         1 MOL     -0.750811
    110 H47        -2.3120    2.0200    0.2420 hn        1 MOL      0.286833
    111 H48        -2.9930    4.3640   -1.6420 h1        1 MOL      0.105152
    112 H49        -0.8110    3.9250   -2.0190 hc        1 MOL      0.036703
    113 H50        -1.7120    3.2160   -3.3860 hc        1 MOL      0.036703
    114 N11        -4.2550    1.3570   -1.5080 n         1 MOL     -0.150962
    115 C36        -5.2970    0.5420   -2.1190 c3        1 MOL      0.249357
    116 C37        -5.3780   -0.7750   -1.3290 c         1 MOL      0.204531
    117 O19        -6.0950   -0.8460   -0.3030 o         1 MOL     -0.383850
    118 C38        -6.5850    1.3620   -2.0890 c3        1 MOL     -0.508727
    119 C39        -7.8860    0.6610   -2.2460 ca        1 MOL      0.334109
    120 C40        -8.7200    0.5780   -1.0970 ca        1 MOL     -0.293383
    121 C41        -8.3100    0.1530   -3.4720 ca        1 MOL     -0.293383
    122 C42       -10.0540    0.0790   -1.1790 ca        1 MOL     -0.044345
    123 C43        -9.5340   -0.5570   -3.4760 ca        1 MOL     -0.044345
    124 C44       -10.4280   -0.5270   -2.4090 ca        1 MOL     -0.213247
    125 H51        -3.8360    1.1180   -0.6250 hn        1 MOL      0.100754
    126 H52        -5.0110    0.2910   -3.1390 h1        1 MOL      0.048196
    127 H53        -6.4780    2.0510   -2.9320 hc        1 MOL      0.158143
    128 H54        -6.6640    1.8910   -1.1430 hc        1 MOL      0.158143
    129 H55        -8.3590    0.9810   -0.1610 ha        1 MOL      0.149753
    130 H56        -7.6900    0.1760   -4.3610 ha        1 MOL      0.149753
    131 H57       -10.7470    0.1670   -0.3570 ha        1 MOL      0.087407
    132 H58        -9.7660   -1.0860   -4.3930 ha        1 MOL      0.087407
    133 H59       -11.3590   -1.0580   -2.5000 ha        1 MOL      0.111299
    134 N12        -4.6440   -1.8600   -1.6440 n         1 MOL     -0.027273
    135 C45        -4.8570   -3.1130   -0.9440 c3        1 MOL      0.087914
    136 C46        -4.6620   -3.2760    0.5740 c         1 MOL      0.294327
    137 O20        -4.9560   -4.3290    1.1280 o         1 MOL     -0.524784
    138 C47        -4.0640   -4.1860   -1.7140 c3        1 MOL     -0.317201
    139 C48        -4.0010   -3.5230   -3.1360 c3        1 MOL     -0.004124
    140 C49        -3.7730   -2.1280   -2.7820 c3        1 MOL      0.012435
    141 H60        -5.9090   -3.3260   -1.1170 h1        1 MOL      0.057199
    142 H61        -3.0130   -4.2660   -1.4300 hc        1 MOL      0.123216
    143 H62        -4.4710   -5.1880   -1.8050 hc        1 MOL      0.123216
    144 H63        -3.3040   -3.9210   -3.8690 hc        1 MOL      0.021639
    145 H64        -4.9270   -3.7280   -3.6700 hc        1 MOL      0.021639
    146 H65        -2.7380   -1.8870   -2.5450 h1        1 MOL      0.074751
    147 H66        -4.1000   -1.6580   -3.7070 h1        1 MOL      0.074751
    148 N13        -4.2340   -2.2770    1.3400 n         1 MOL      0.014795
    149 C50        -4.1600   -2.2830    2.7820 c3        1 MOL     -0.191623
    150 C51        -5.5220   -2.3350    3.4120 c         1 MOL      0.501554
    151 O21        -5.7730   -3.0490    4.3820 o         1 MOL     -0.562434
    152 C52        -3.3680   -1.1160    3.4150 c3        1 MOL      0.030498
    153 C53        -2.1090   -0.7780    2.6520 c3        1 MOL      0.040538
    154 C54        -2.1770   -0.3370    1.2010 c         1 MOL      0.294992
    155 O22        -1.4190   -0.8770    0.3560 o         1 MOL     -0.524569
    156 O23        -3.2440    0.2870    0.8830 o         1 MOL     -0.524569
    157 H67        -4.1050   -1.4120    0.8480 hn        1 MOL      0.141892
    158 H68        -3.6640   -3.2110    3.0820 h1        1 MOL      0.104873
    159 H69        -3.0580   -1.4860    4.3960 hc        1 MOL      0.002296
    160 H70        -4.0730   -0.3020    3.5440 hc        1 MOL      0.002296
    161 H71        -1.4240   -1.6300    2.6460 hc        1 MOL     -0.008964
    162 H72        -1.6080   -0.0210    3.2580 hc        1 MOL     -0.008964
    163 N14        -6.4330   -1.6490    2.7080 n         1 MOL     -0.027719
    164 C55        -7.8380   -1.5780    3.0000 c3        1 MOL     -0.331186
    165 H73        -7.9850   -1.0800    3.9580 h1        1 MOL      0.110037
    166 H74        -8.3450   -1.0150    2.2170 h1        1 MOL      0.110037
    167 H75        -8.2510   -2.5860    3.0480 h1        1 MOL      0.110037
    168 H76        -6.1290   -1.3110    1.8000 hn        1 MOL      0.074854
    169 Ca1         0.5970   -0.7700   -1.0120 Ca        1 MOL      1.748620
    170 O24        -0.4780   -3.0320   -2.0150 oh        1 MOL     -0.911448
    171 H77        -0.5360   -3.9010   -1.6190 ho        1 MOL      0.418073
    172 H78        -0.4020   -3.2070   -2.9570 ho        1 MOL      0.418073
    173 O25         1.8510    0.6040    0.9390 oh        1 MOL     -0.911448
    174 H79         2.4610    0.3170    1.6260 ho        1 MOL      0.418073
    175 H80         1.4860    1.4180    1.2810 ho        1 MOL      0.418073
    176 O26         1.5230   -2.5070    0.9110 oh        1 MOL     -0.911448
    177 H81         1.1140   -2.8520    1.7070 ho        1 MOL      0.418073
    178 H82         2.4050   -2.8630    0.9260 ho        1 MOL      0.418073
@<TRIPOS>BOND
     1    1    2 1   
     2    1    4 1   
     3    1    5 1   
     4    1    6 1   
     5    2    3 2   
     6    2    7 1   
     7    7    8 1   
     8    7   15 1   
     9    8    9 1   
    10    8   11 1   
    11    8   16 1   
    12    9   10 2   
    13    9   19 1   
    14   11   12 1   
    15   11   17 1   
    16   11   18 1   
    17   12   13 1   
    18   12   14 1   
    19   19   20 1   
    20   19   24 1   
    21   20   21 1   
    22   20   23 1   
    23   20   25 1   
    24   21   22 2   
    25   21   29 1   
    26   23   26 1   
    27   23   27 1   
    28   23   28 1   
    29   29   30 1   
    30   29   37 1   
    31   30   31 1   
    32   30   33 1   
    33   30   38 1   
    34   31   32 2   
    35   31   41 1   
    36   33   34 1   
    37   33   39 1   
    38   33   40 1   
    39   34   35 1   
    40   34   36 1   
    41   41   42 1   
    42   41   45 1   
    43   42   43 1   
    44   42   46 1   
    45   42   47 1   
    46   43   44 2   
    47   43   48 1   
    48   48   49 1   
    49   48   56 1   
    50   49   50 1   
    51   49   52 1   
    52   49   57 1   
    53   50   51 2   
    54   50   62 1   
    55   52   53 1   
    56   52   58 1   
    57   52   59 1   
    58   53   54 1   
    59   53   55 2   
    60   54   60 1   
    61   54   61 1   
    62   62   63 1   
    63   62   66 1   
    64   63   64 1   
    65   63   67 1   
    66   63   68 1   
    67   64   65 2   
    68   64   69 1   
    69   69   70 1   
    70   69   76 1   
    71   70   71 1   
    72   70   73 1   
    73   70   77 1   
    74   71   72 2   
    75   71   83 1   
    76   73   74 1   
    77   73   75 1   
    78   73   78 1   
    79   74   80 1   
    80   74   81 1   
    81   74   82 1   
    82   75   79 1   
    83   83   84 1   
    84   83   91 1   
    85   84   85 1   
    86   84   87 1   
    87   84   92 1   
    88   85   86 2   
    89   85  102 1   
    90   87   88 1   
    91   87   89 1   
    92   87   93 1   
    93   88   90 1   
    94   88   94 1   
    95   88   95 1   
    96   89   96 1   
    97   89   97 1   
    98   89   98 1   
    99   90   99 1   
   100   90  100 1   
   101   90  101 1   
   102  102  103 1   
   103  102  110 1   
   104  103  104 1   
   105  103  106 1   
   106  103  111 1   
   107  104  105 2   
   108  104  114 1   
   109  106  107 1   
   110  106  112 1   
   111  106  113 1   
   112  107  108 1   
   113  107  109 1   
   114  114  115 1   
   115  114  125 1   
   116  115  116 1   
   117  115  118 1   
   118  115  126 1   
   119  116  117 2   
   120  116  134 1   
   121  118  119 1   
   122  118  127 1   
   123  118  128 1   
   124  119  120 ar  
   125  119  121 ar  
   126  120  122 ar  
   127  120  129 1   
   128  121  123 ar  
   129  121  130 1   
   130  122  124 ar  
   131  122  131 1   
   132  123  124 ar  
   133  123  132 1   
   134  124  133 1   
   135  134  135 1   
   136  134  140 1   
   137  135  136 1   
   138  135  138 1   
   139  135  141 1   
   140  136  137 2   
   141  136  148 1   
   142  138  139 1   
   143  138  142 1   
   144  138  143 1   
   145  139  140 1   
   146  139  144 1   
   147  139  145 1   
   148  140  146 1   
   149  140  147 1   
   150  148  149 1   
   151  148  157 1   
   152  149  150 1   
   153  149  152 1   
   154  149  158 1   
   155  150  151 2   
   156  150  163 1   
   157  152  153 1   
   158  152  159 1   
   159  152  160 1   
   160  153  154 1   
   161  153  161 1   
   162  153  162 1   
   163  154  155 1   
   164  154  156 1   
   165  163  164 1   
   166  163  168 1   
   167  164  165 1   
   168  164  166 1   
   169  164  167 1   
   170  170  171 1   
   171  170  172 1   
   172  173  174 1   
   173  173  175 1   
   174  176  177 1   
   175  176  178 1   
@<TRIPOS>SUBSTRUCTURE
     1 MOL         1 TEMP              0 ****  ****    0 ROOT
