@<TRIPOS>MOLECULE
MOL
  195   189     1     0     0
SMALL
resp


@<TRIPOS>ATOM
      1 C1          1.0840    3.2430    3.1450 c3        1 MOL      0.019681
      2 C2          0.2530    3.3320    1.7770 c         1 MOL      0.764779
      3 O1         -0.1720    2.3240    1.1800 o         1 MOL     -0.573514
      4 H1          2.1300    3.4780    2.9490 hc        1 MOL     -0.039683
      5 H2          0.6810    3.9560    3.8640 hc        1 MOL     -0.039683
      6 H3          1.0090    2.2350    3.5520 hc        1 MOL     -0.039683
      7 N1          0.1890    4.4960    1.1550 n         1 MOL     -0.565248
      8 C3         -0.5010    4.8580   -0.1020 c3        1 MOL     -0.108480
      9 C4         -1.9680    4.3310   -0.1330 c         1 MOL      0.920641
     10 O2         -2.3880    3.7050   -1.1340 o         1 MOL     -0.612419
     11 C5          0.4000    4.3730   -1.2700 c3        1 MOL     -0.586423
     12 C6          1.8640    4.8920   -1.3410 c         1 MOL      1.149734
     13 O3          2.6930    4.2260   -2.0210 o         1 MOL     -0.859480
     14 O4          2.2460    5.8990   -0.7180 o         1 MOL     -0.859480
     15 H4          0.6240    5.2430    1.6770 hn        1 MOL      0.231002
     16 H5         -0.5530    5.9500   -0.1030 h1        1 MOL      0.103234
     17 H6         -0.0670    4.8230   -2.1510 hc        1 MOL      0.177074
     18 H7          0.2950    3.2880   -1.3360 hc        1 MOL      0.177074
     19 N2         -2.7730    4.8230    0.8230 n         1 MOL     -0.739762
     20 C7         -4.2130    4.6210    1.1280 c3        1 MOL      0.063734
     21 C8         -5.0640    5.6910    0.5030 c         1 MOL      0.547310
     22 O5         -4.5900    6.7820    0.2210 o         1 MOL     -0.582292
     23 C9         -4.4770    4.2270    2.6310 c3        1 MOL      0.030945
     24 C10        -4.3040    5.4450    3.5890 c3        1 MOL      0.258924
     25 C11        -3.4570    3.2830    3.1860 c3        1 MOL     -0.073808
     26 C12        -5.5090    6.3040    3.7890 c3        1 MOL     -0.193325
     27 H8         -2.2240    5.2500    1.5560 hn        1 MOL      0.342830
     28 H9         -4.3900    3.6780    0.6160 h1        1 MOL      0.139149
     29 H10        -5.4910    3.8340    2.7200 hc        1 MOL      0.028249
     30 H11        -3.5480    6.1400    3.2340 hc        1 MOL     -0.088801
     31 H12        -3.9530    5.1550    4.5810 hc        1 MOL     -0.088801
     32 H13        -3.4890    2.3510    2.6170 hc        1 MOL      0.002423
     33 H14        -2.4390    3.6540    3.0510 hc        1 MOL      0.002423
     34 H15        -3.6690    2.9000    4.1840 hc        1 MOL      0.002423
     35 H16        -6.4060    5.6790    3.8190 hc        1 MOL      0.043265
     36 H17        -5.3680    6.9010    4.6860 hc        1 MOL      0.043265
     37 H18        -5.6930    7.0220    2.9900 hc        1 MOL      0.043265
     38 N3         -6.3410    5.5280    0.0900 n         1 MOL     -0.497472
     39 C13        -7.2000    4.3610    0.2920 c3        1 MOL      0.149214
     40 C14        -6.7040    3.0620   -0.3810 c         1 MOL      0.518180
     41 O6         -6.6960    1.9870    0.2780 o         1 MOL     -0.554272
     42 C15        -8.5770    4.7090   -0.1260 c3        1 MOL     -0.254378
     43 C16        -9.1900    5.9750    0.5010 c         1 MOL      0.737075
     44 O7        -10.1470    6.5400   -0.1720 o         1 MOL     -0.733863
     45 O8         -8.7850    6.3740    1.6090 o         1 MOL     -0.733863
     46 H19        -6.7370    6.4270   -0.1380 hn        1 MOL      0.310733
     47 H20        -7.2070    4.2140    1.3660 h1        1 MOL      0.037838
     48 H21        -9.1260    3.8510    0.2440 hc        1 MOL      0.041251
     49 H22        -8.6430    4.7010   -1.2160 hc        1 MOL      0.041251
     50 N4         -6.0780    3.2350   -1.6030 n         1 MOL     -0.449971
     51 C17        -5.2210    2.3400   -2.2800 c3        1 MOL     -0.006162
     52 C18        -5.8680    1.0040   -2.7560 c         1 MOL      0.425076
     53 O9         -7.0490    0.9770   -2.7830 o         1 MOL     -0.503239
     54 H23        -6.1770    4.1650   -1.9850 hn        1 MOL      0.285389
     55 H24        -4.3760    2.0690   -1.6450 h1        1 MOL      0.087409
     56 H25        -4.8070    2.7710   -3.1930 h1        1 MOL      0.087409
     57 N5         -5.1320   -0.0440   -3.0040 n         1 MOL     -0.287955
     58 C19        -5.5720   -1.3470   -3.5180 c3        1 MOL      0.085900
     59 C20        -6.4060   -2.0870   -2.4440 c         1 MOL      0.250867
     60 O10        -7.4600   -2.6870   -2.7190 o         1 MOL     -0.546747
     61 C21        -4.3510   -2.2050   -3.9210 c3        1 MOL     -0.153010
     62 C22        -3.1900   -2.0510   -2.8970 c         1 MOL      0.665839
     63 O11        -2.2300   -1.2710   -3.2370 o         1 MOL     -0.661706
     64 O12        -3.0890   -2.7200   -1.8160 o         1 MOL     -0.661706
     65 H26        -4.1630    0.1990   -3.0950 hn        1 MOL      0.179938
     66 H27        -6.2690   -1.2590   -4.3540 h1        1 MOL      0.059663
     67 H28        -3.9630   -1.7500   -4.8410 hc        1 MOL      0.027391
     68 H29        -4.6800   -3.2200   -4.1360 hc        1 MOL      0.027391
     69 N6         -6.0720   -2.0720   -1.1500 n         1 MOL      0.207872
     70 C23        -6.5980   -2.6730    0.0270 c3        1 MOL     -0.402821
     71 C24        -5.9600   -4.0930    0.2540 c         1 MOL      0.524961
     72 O13        -6.5200   -4.8310    1.0270 o         1 MOL     -0.592584
     73 H30        -5.4430   -1.2920   -0.9920 hn        1 MOL      0.111556
     74 H31        -7.6710   -2.8360   -0.0780 h1        1 MOL      0.140834
     75 H32        -6.2680   -2.1060    0.9010 h1        1 MOL      0.140834
     76 N7         -4.8780   -4.4140   -0.4540 n         1 MOL      0.055718
     77 C25        -3.9800   -5.6100   -0.4060 c3        1 MOL     -0.060321
     78 C26        -3.4260   -6.0200    0.9280 c         1 MOL      0.532770
     79 O14        -3.3950   -7.1800    1.1170 o         1 MOL     -0.530510
     80 C27        -4.6030   -6.7900   -1.2850 c3        1 MOL     -0.081733
     81 C28        -5.3210   -6.3030   -2.5870 c3        1 MOL     -0.042136
     82 C29        -5.7390   -7.4840   -3.4330 c         1 MOL      0.586749
     83 N8         -6.9410   -7.5430   -3.8830 n         1 MOL     -0.699328
     84 O15        -4.9300   -8.3780   -3.6660 o         1 MOL     -0.579875
     85 H33        -4.5600   -3.6310   -1.0140 hn        1 MOL     -0.039172
     86 H34        -3.0850   -5.2980   -0.9350 h1        1 MOL      0.117702
     87 H35        -5.4830   -7.3030   -0.8730 hc        1 MOL      0.046279
     88 H36        -3.8750   -7.5400   -1.5820 hc        1 MOL      0.046279
     89 H37        -4.8170   -5.5370   -3.1800 hc        1 MOL      0.015392
     90 H38        -6.2360   -5.7880   -2.2690 hc        1 MOL      0.015392
     91 H39        -7.5030   -6.7040   -3.9620 hn        1 MOL      0.324488
     92 H40        -7.1450   -8.3230   -4.4770 hn        1 MOL      0.324488
     93 N9         -3.2350   -5.0520    1.8480 n         1 MOL     -0.319558
     94 C30        -2.8690   -5.2850    3.2870 c3        1 MOL     -0.104304
     95 C31        -1.5260   -4.6330    3.5970 c         1 MOL      0.570757
     96 O16        -0.7640   -5.2060    4.3730 o         1 MOL     -0.574693
     97 C32        -4.0070   -4.7940    4.1780 c3        1 MOL      0.166971
     98 C33        -4.4960   -3.3830    3.7930 c3        1 MOL     -0.294803
     99 C34        -5.2630   -5.7600    4.2020 c3        1 MOL     -0.294803
    100 H41        -3.2580   -4.1170    1.4670 hn        1 MOL      0.156452
    101 H42        -2.8140   -6.3690    3.4460 h1        1 MOL      0.113820
    102 H43        -3.6430   -4.6700    5.1960 hc        1 MOL     -0.006030
    103 H44        -5.0240   -2.8560    4.5880 hc        1 MOL      0.075674
    104 H45        -3.7330   -2.6940    3.4180 hc        1 MOL      0.075674
    105 H46        -5.1800   -3.5420    2.9620 hc        1 MOL      0.075674
    106 H47        -5.7950   -5.7240    3.2620 hc        1 MOL      0.075674
    107 H48        -4.8140   -6.7500    4.2600 hc        1 MOL      0.075674
    108 H49        -5.8190   -5.6720    5.1380 hc        1 MOL      0.075674
    109 N10        -1.2580   -3.4880    3.0370 n         1 MOL     -0.544829
    110 C35        -0.0580   -2.7680    2.8890 c3        1 MOL      0.458331
    111 C36         0.5850   -3.0480    1.5250 c         1 MOL      0.489617
    112 O17        -0.1140   -3.4970    0.6140 o         1 MOL     -0.532261
    113 C37        -0.2330   -1.3060    3.2110 c3        1 MOL     -0.444652
    114 C38         1.0640   -0.5830    3.6350 c         1 MOL      0.707378
    115 N11         1.3160   -0.3770    4.8840 n         1 MOL     -0.782415
    116 O18         1.8260   -0.1780    2.7670 o         1 MOL     -0.506860
    117 H50        -1.9890   -3.0570    2.4810 hn        1 MOL      0.357763
    118 H51         0.5970   -3.0850    3.7090 h1        1 MOL     -0.035386
    119 H52        -0.9180   -1.2910    4.0560 hc        1 MOL      0.099509
    120 H53        -0.4690   -0.8550    2.2420 hc        1 MOL      0.099509
    121 H54         0.6360   -0.7230    5.5440 hn        1 MOL      0.364250
    122 H55         2.1870    0.0210    5.2090 hn        1 MOL      0.364250
    123 N12         1.8210   -2.6520    1.3450 n         1 MOL     -0.526990
    124 C39         2.6960   -2.9810    0.1720 c3        1 MOL      0.139105
    125 C40         4.1700   -2.7740    0.6010 c         1 MOL      0.597969
    126 O19         4.3860   -1.9830    1.5220 o         1 MOL     -0.566913
    127 C41         2.3060   -2.1000   -1.0270 c3        1 MOL     -0.173348
    128 C42         3.2530   -2.1400   -2.1830 ca        1 MOL     -0.030549
    129 C43         4.4050   -1.3070   -2.2210 ca        1 MOL     -0.126266
    130 C44         2.9320   -3.1290   -3.1960 ca        1 MOL     -0.126266
    131 C45         5.3060   -1.5080   -3.3270 ca        1 MOL     -0.262263
    132 C46         3.8870   -3.3260   -4.2450 ca        1 MOL     -0.262263
    133 C47         5.1060   -2.5540   -4.3090 ca        1 MOL      0.350473
    134 O20         5.9000   -2.7040   -5.3740 oh        1 MOL     -0.524086
    135 H56         2.2000   -2.0440    2.0600 hn        1 MOL      0.231099
    136 H57         2.5590   -4.0040   -0.1710 h1        1 MOL      0.054975
    137 H58         2.1900   -1.0730   -0.7040 hc        1 MOL      0.144198
    138 H59         1.3170   -2.4510   -1.2850 hc        1 MOL      0.144198
    139 H60         4.5160   -0.4770   -1.5380 ha        1 MOL      0.151045
    140 H61         2.0440   -3.7400   -3.2360 ha        1 MOL      0.151045
    141 H62         6.2110   -0.9130   -3.3600 ha        1 MOL      0.135114
    142 H63         3.8370   -4.0940   -5.0010 ha        1 MOL      0.135114
    143 H64         6.7320   -2.2500   -5.2540 ho        1 MOL      0.393683
    144 N13         5.1080   -3.4210   -0.0180 n         1 MOL     -0.747977
    145 C48         6.5690   -3.2300    0.2480 c3        1 MOL      0.558153
    146 C49         7.3060   -2.5170   -0.9500 c         1 MOL      0.451321
    147 O21         7.6700   -3.1320   -1.9430 o         1 MOL     -0.546050
    148 C50         7.0820   -4.6220    0.5800 c3        1 MOL     -0.036019
    149 C51         8.5110   -4.4630    1.1020 c3        1 MOL     -0.313739
    150 C52         9.2750   -5.7440    1.6410 c         1 MOL      0.741135
    151 O22         9.1700   -6.1710    2.7650 o         1 MOL     -0.697470
    152 O23        10.1330   -6.2290    0.7740 o         1 MOL     -0.697470
    153 H65         4.8690   -3.9900   -0.8200 hn        1 MOL      0.318239
    154 H66         6.6680   -2.6770    1.1740 h1        1 MOL     -0.002260
    155 H67         7.0120   -5.1970   -0.3480 hc        1 MOL      0.017431
    156 H68         6.4820   -5.0280    1.3970 hc        1 MOL      0.017431
    157 H69         8.4680   -3.8420    2.0020 hc        1 MOL      0.062034
    158 H70         9.0990   -3.8310    0.4330 hc        1 MOL      0.062034
    159 N14         7.6560   -1.2320   -0.8980 n         1 MOL     -0.406759
    160 C53         7.1360   -0.2590    0.0590 c3        1 MOL     -0.215156
    161 C54         7.5410   -0.4610    1.5760 c         1 MOL      0.513590
    162 O24         8.7350   -0.7700    1.7360 o         1 MOL     -0.527660
    163 C55         7.6860    1.1210   -0.4030 c3        1 MOL     -0.053102
    164 C56         6.6520    1.6750   -1.3770 c3        1 MOL     -0.362071
    165 C57         7.0420    3.1270   -1.9280 c         1 MOL      0.699269
    166 O25         8.1190    3.2780   -2.5410 o         1 MOL     -0.675751
    167 O26         6.2500    4.0550   -1.6700 o         1 MOL     -0.675751
    168 H71         8.2900   -0.8640   -1.5960 hn        1 MOL      0.327888
    169 H72         6.0600   -0.1980   -0.0840 h1        1 MOL      0.088124
    170 H73         8.6650    1.1190   -0.8880 hc        1 MOL      0.061723
    171 H74         7.8490    1.8140    0.4220 hc        1 MOL      0.061723
    172 H75         5.7310    1.7760   -0.8050 hc        1 MOL      0.110298
    173 H76         6.6000    1.0860   -2.3000 hc        1 MOL      0.110298
    174 N15         6.6890   -0.2200    2.5780 n         1 MOL     -0.292813
    175 C58         7.1020   -0.1790    4.0100 c3        1 MOL     -0.206042
    176 H77         8.1650    0.0530    4.0740 h1        1 MOL      0.099509
    177 H78         6.5310    0.5900    4.5320 h1        1 MOL      0.099509
    178 H79         6.9140   -1.1480    4.4710 h1        1 MOL      0.099509
    179 H80         5.7590    0.0420    2.2580 hn        1 MOL      0.266062
    180 Ca1         4.8230    6.0520   -0.7700 Ca        1 MOL      1.746484
    181 O27         4.4220    3.7830    0.7280 oh        1 MOL     -0.871659
    182 H81         5.1860    3.4010    1.1420 ho        1 MOL      0.413464
    183 H82         3.8630    3.0400    0.5180 ho        1 MOL      0.413464
    184 O28         4.9250    8.6650   -0.6500 oh        1 MOL     -0.871659
    185 H83         4.5380    9.0560   -1.4290 ho        1 MOL      0.413464
    186 H84         5.3370    9.3950   -0.1860 ho        1 MOL      0.413464
    187 O29         3.7240    7.2140   -2.8860 oh        1 MOL     -0.871659
    188 H85         4.1050    7.5640   -3.6960 ho        1 MOL      0.413464
    189 H86         2.8520    7.6080   -2.8360 ho        1 MOL      0.413464
    190 O30         6.6940    6.6190    1.0430 oh        1 MOL     -0.871659
    191 H87         7.5540    6.3920    1.4150 ho        1 MOL      0.413464
    192 H88         6.2260    7.0460    1.7570 ho        1 MOL      0.413464
    193 O31         6.7910    7.0760   -2.2760 oh        1 MOL     -0.871659
    194 H89         7.4690    7.7200   -2.0770 ho        1 MOL      0.413464
    195 H90         6.9350    6.8410   -3.1940 ho        1 MOL      0.413464
@<TRIPOS>BOND
     1    1    2 1   
     2    1    4 1   
     3    1    5 1   
     4    1    6 1   
     5    2    3 2   
     6    2    7 1   
     7    7    8 1   
     8    7   15 1   
     9    8    9 1   
    10    8   11 1   
    11    8   16 1   
    12    9   10 2   
    13    9   19 1   
    14   11   12 1   
    15   11   17 1   
    16   11   18 1   
    17   12   13 1   
    18   12   14 1   
    19   19   20 1   
    20   19   27 1   
    21   20   21 1   
    22   20   23 1   
    23   20   28 1   
    24   21   22 2   
    25   21   38 1   
    26   23   24 1   
    27   23   25 1   
    28   23   29 1   
    29   24   26 1   
    30   24   30 1   
    31   24   31 1   
    32   25   32 1   
    33   25   33 1   
    34   25   34 1   
    35   26   35 1   
    36   26   36 1   
    37   26   37 1   
    38   38   39 1   
    39   38   46 1   
    40   39   40 1   
    41   39   42 1   
    42   39   47 1   
    43   40   41 2   
    44   40   50 1   
    45   42   43 1   
    46   42   48 1   
    47   42   49 1   
    48   43   44 1   
    49   43   45 1   
    50   50   51 1   
    51   50   54 1   
    52   51   52 1   
    53   51   55 1   
    54   51   56 1   
    55   52   53 2   
    56   52   57 1   
    57   57   58 1   
    58   57   65 1   
    59   58   59 1   
    60   58   61 1   
    61   58   66 1   
    62   59   60 2   
    63   59   69 1   
    64   61   62 1   
    65   61   67 1   
    66   61   68 1   
    67   62   63 1   
    68   62   64 1   
    69   69   70 1   
    70   69   73 1   
    71   70   71 1   
    72   70   74 1   
    73   70   75 1   
    74   71   72 2   
    75   71   76 1   
    76   76   77 1   
    77   76   85 1   
    78   77   78 1   
    79   77   80 1   
    80   77   86 1   
    81   78   79 2   
    82   78   93 1   
    83   80   81 1   
    84   80   87 1   
    85   80   88 1   
    86   81   82 1   
    87   81   89 1   
    88   81   90 1   
    89   82   83 1   
    90   82   84 2   
    91   83   91 1   
    92   83   92 1   
    93   93   94 1   
    94   93  100 1   
    95   94   95 1   
    96   94   97 1   
    97   94  101 1   
    98   95   96 2   
    99   95  109 1   
   100   97   98 1   
   101   97   99 1   
   102   97  102 1   
   103   98  103 1   
   104   98  104 1   
   105   98  105 1   
   106   99  106 1   
   107   99  107 1   
   108   99  108 1   
   109  109  110 1   
   110  109  117 1   
   111  110  111 1   
   112  110  113 1   
   113  110  118 1   
   114  111  112 2   
   115  111  123 1   
   116  113  114 1   
   117  113  119 1   
   118  113  120 1   
   119  114  115 1   
   120  114  116 2   
   121  115  121 1   
   122  115  122 1   
   123  123  124 1   
   124  123  135 1   
   125  124  125 1   
   126  124  127 1   
   127  124  136 1   
   128  125  126 2   
   129  125  144 1   
   130  127  128 1   
   131  127  137 1   
   132  127  138 1   
   133  128  129 ar  
   134  128  130 ar  
   135  129  131 ar  
   136  129  139 1   
   137  130  132 ar  
   138  130  140 1   
   139  131  133 ar  
   140  131  141 1   
   141  132  133 ar  
   142  132  142 1   
   143  133  134 1   
   144  134  143 1   
   145  144  145 1   
   146  144  153 1   
   147  145  146 1   
   148  145  148 1   
   149  145  154 1   
   150  146  147 2   
   151  146  159 1   
   152  148  149 1   
   153  148  155 1   
   154  148  156 1   
   155  149  150 1   
   156  149  157 1   
   157  149  158 1   
   158  150  151 1   
   159  150  152 1   
   160  159  160 1   
   161  159  168 1   
   162  160  161 1   
   163  160  163 1   
   164  160  169 1   
   165  161  162 2   
   166  161  174 1   
   167  163  164 1   
   168  163  170 1   
   169  163  171 1   
   170  164  165 1   
   171  164  172 1   
   172  164  173 1   
   173  165  166 1   
   174  165  167 1   
   175  174  175 1   
   176  174  179 1   
   177  175  176 1   
   178  175  177 1   
   179  175  178 1   
   180  181  182 1   
   181  181  183 1   
   182  184  185 1   
   183  184  186 1   
   184  187  188 1   
   185  187  189 1   
   186  190  191 1   
   187  190  192 1   
   188  193  194 1   
   189  193  195 1   
@<TRIPOS>SUBSTRUCTURE
     1 MOL         1 TEMP              0 ****  ****    0 ROOT
