@<TRIPOS>MOLECULE
MOL
  189   185     1     0     0
SMALL
resp


@<TRIPOS>ATOM
      1 C1          1.3770    6.9530   -3.3740 c3        1 MOL     -0.263917
      2 C2          1.7000    5.5640   -2.8360 c         1 MOL      0.611064
      3 O1          1.6080    4.5890   -3.6100 o         1 MOL     -0.588177
      4 H1          0.4740    6.9050   -3.9840 hc        1 MOL      0.065410
      5 H2          1.2160    7.6370   -2.5420 hc        1 MOL      0.065410
      6 H3          2.2070    7.3090   -3.9830 hc        1 MOL      0.065410
      7 N1          2.1830    5.4470   -1.6050 n         1 MOL     -0.435236
      8 C3          2.5440    4.0830   -1.0150 c3        1 MOL      0.081485
      9 C4          1.3350    3.3980   -0.3020 c         1 MOL      0.476170
     10 O2          1.4330    2.3090    0.2570 o         1 MOL     -0.547156
     11 C5          3.8050    4.1750   -0.2060 c3        1 MOL     -0.486951
     12 C6          3.7630    5.2960    0.8230 c         1 MOL      0.838425
     13 O3          3.3850    6.4310    0.5290 o         1 MOL     -0.748472
     14 O4          4.2340    5.1050    1.9840 o         1 MOL     -0.748472
     15 H4          2.4110    6.2920   -1.0970 hn        1 MOL      0.303038
     16 H5          2.6600    3.3890   -1.8430 h1        1 MOL      0.122222
     17 H6          4.6440    4.3310   -0.8880 hc        1 MOL      0.134578
     18 H7          3.9120    3.2410    0.3470 hc        1 MOL      0.134578
     19 N2          0.1350    3.9800   -0.3270 n         1 MOL     -0.298492
     20 C7         -1.1520    3.5810    0.2520 c3        1 MOL      0.155104
     21 C8         -2.1430    3.2700   -0.8760 c         1 MOL      0.465912
     22 O5         -2.1700    3.8240   -1.9390 o         1 MOL     -0.529996
     23 C9         -1.6510    4.7060    1.2640 c3        1 MOL     -0.138666
     24 C10        -0.6920    5.1260    2.4060 c3        1 MOL     -0.080431
     25 C11        -1.2600    6.2430    3.3030 c3        1 MOL      0.090572
     26 C12        -2.3480    5.6710    4.1920 c3        1 MOL      0.014210
     27 N3         -2.8190    6.6960    5.1680 n4        1 MOL     -0.440129
     28 H8          0.1650    4.8220   -0.8860 hn        1 MOL      0.155163
     29 H9         -0.9960    2.6910    0.8660 h1        1 MOL      0.090369
     30 H10        -2.6160    4.3770    1.6530 hc        1 MOL      0.047682
     31 H11        -1.9670    5.6320    0.7670 hc        1 MOL      0.047682
     32 H12         0.2100    5.4920    1.9310 hc        1 MOL      0.053882
     33 H13        -0.4530    4.2390    2.9900 hc        1 MOL      0.053882
     34 H14        -1.7450    7.0230    2.7040 hc        1 MOL      0.015235
     35 H15        -0.4190    6.7190    3.8030 hc        1 MOL      0.015235
     36 H16        -1.8870    4.8220    4.6950 hx        1 MOL      0.099833
     37 H17        -3.1970    5.4080    3.5600 hx        1 MOL      0.099833
     38 H18        -3.4550    7.3720    4.7650 hn        1 MOL      0.334356
     39 H19        -3.4480    6.2220    5.8030 hn        1 MOL      0.334356
     40 H20        -2.1110    7.0600    5.7840 hn        1 MOL      0.334356
     41 N4         -2.9600    2.1840   -0.8030 n         1 MOL     -0.499538
     42 C13        -3.0990    0.9940    0.0580 c3        1 MOL      0.356774
     43 C14        -3.4860    1.4920    1.5190 c         1 MOL      0.146643
     44 O6         -2.6740    1.7070    2.4600 o         1 MOL     -0.528754
     45 C15        -1.9060    0.1070   -0.1000 c3        1 MOL     -0.253189
     46 C16        -1.3010   -0.2510   -1.5350 c         1 MOL      0.977959
     47 O7         -1.9930   -0.0860   -2.5790 o         1 MOL     -0.832248
     48 O8         -0.2860   -0.9490   -1.6720 o         1 MOL     -0.832248
     49 H21        -3.5220    2.1440   -1.6350 hn        1 MOL      0.300880
     50 H22        -4.0150    0.5200   -0.2850 h1        1 MOL     -0.002469
     51 H23        -2.1330   -0.8600    0.3510 hc        1 MOL      0.056101
     52 H24        -1.1250    0.5580    0.5190 hc        1 MOL      0.056101
     53 N5         -4.7770    1.7240    1.8100 n         1 MOL     -0.167880
     54 C17        -5.9580    1.6870    0.8900 c3        1 MOL     -0.083953
     55 C18        -7.1750    2.5050    1.2950 c         1 MOL      0.572116
     56 O9         -7.1700    3.2980    2.2100 o         1 MOL     -0.585252
     57 H25        -5.0290    1.9540    2.7620 hn        1 MOL      0.242117
     58 H26        -6.1660    0.6220    0.8110 h1        1 MOL      0.069096
     59 H27        -5.6830    2.0590   -0.0970 h1        1 MOL      0.069096
     60 N6         -8.2980    2.3730    0.5850 n         1 MOL     -0.369710
     61 C19        -8.3980    1.6680   -0.7040 c3        1 MOL      0.007517
     62 C20        -8.5690    0.1490   -0.3700 c         1 MOL      0.593919
     63 O10        -9.0350   -0.1920    0.7280 o         1 MOL     -0.493718
     64 C21        -9.6150    2.2090   -1.5410 c3        1 MOL     -0.171958
     65 C22       -10.9020    2.3720   -0.7970 c         1 MOL      0.661828
     66 O11       -11.8630    1.4960   -0.9810 o         1 MOL     -0.653175
     67 O12       -11.0040    3.3450    0.0240 o         1 MOL     -0.653175
     68 H28        -9.0610    3.0030    0.7520 hn        1 MOL      0.273329
     69 H29        -7.4740    1.7770   -1.2630 h1        1 MOL      0.013712
     70 H30        -9.7760    1.5900   -2.4210 hc        1 MOL      0.022422
     71 H31        -9.3650    3.2430   -1.7960 hc        1 MOL      0.022422
     72 N7         -8.0710   -0.6650   -1.3080 n         1 MOL     -0.484222
     73 C23        -7.9010   -2.1190   -1.0330 c3        1 MOL     -0.010164
     74 C24        -6.6550   -2.3720   -0.2410 c         1 MOL      0.547438
     75 O13        -6.3620   -1.6230    0.6840 o         1 MOL     -0.480444
     76 H32        -7.7240   -0.3340   -2.1980 hn        1 MOL      0.298240
     77 H33        -7.9270   -2.6980   -1.9590 h1        1 MOL      0.075258
     78 H34        -8.7580   -2.4980   -0.4730 h1        1 MOL      0.075258
     79 N8         -6.0000   -3.5290   -0.4900 n         1 MOL     -0.560465
     80 C25        -5.0040   -4.1370    0.4220 c3        1 MOL      0.427900
     81 C26        -3.6270   -3.5460    0.3680 c         1 MOL      0.240272
     82 O14        -3.1080   -3.1370   -0.6690 o         1 MOL     -0.542477
     83 C27        -4.9450   -5.6570    0.2950 c3        1 MOL      0.222894
     84 C28        -4.2730   -6.0990   -0.9300 c3        1 MOL     -0.084390
     85 O15        -6.3080   -6.1270    0.3290 oh        1 MOL     -0.630898
     86 H35        -6.3900   -4.0720   -1.2330 hn        1 MOL      0.287603
     87 H36        -5.3340   -3.9800    1.4430 h1        1 MOL      0.018469
     88 H37        -4.3580   -6.0850    1.1120 h1        1 MOL      0.010576
     89 H38        -6.1830   -7.0020   -0.0470 ho        1 MOL      0.400371
     90 H39        -4.5280   -7.1080   -1.2400 hc        1 MOL      0.020188
     91 H40        -4.5380   -5.5290   -1.8190 hc        1 MOL      0.020188
     92 H41        -3.1940   -6.0640   -0.7670 hc        1 MOL      0.020188
     93 N9         -2.8840   -3.6890    1.4620 n         1 MOL     -0.335007
     94 C29        -1.4480   -3.4510    1.5340 c3        1 MOL      0.006737
     95 C30        -0.6860   -4.6700    1.0790 c         1 MOL      0.346771
     96 O16        -1.0600   -5.8480    1.2350 o         1 MOL     -0.509777
     97 C31        -1.0140   -2.9940    2.9280 c3        1 MOL      0.190589
     98 C32        -1.4640   -1.5160    3.2490 c3        1 MOL      0.103159
     99 C33         0.4160   -2.9900    3.3940 c3        1 MOL     -0.289077
    100 C34        -2.9250   -1.3980    3.5860 c3        1 MOL     -0.400974
    101 H42        -3.3240   -3.9980    2.3120 hn        1 MOL      0.248602
    102 H43        -1.1460   -2.6410    0.8650 h1        1 MOL     -0.038548
    103 H44        -1.4960   -3.6340    3.6600 hc        1 MOL      0.019198
    104 H45        -1.2630   -0.9440    2.3510 hc        1 MOL      0.025669
    105 H46        -0.9230   -1.0850    4.0950 hc        1 MOL      0.025669
    106 H47         0.3400   -2.8790    4.4730 hc        1 MOL      0.035101
    107 H48         1.0160   -3.8110    2.9780 hc        1 MOL      0.035101
    108 H49         0.9340   -2.1160    3.0050 hc        1 MOL      0.035101
    109 H50        -3.5990   -1.4090    2.7250 hc        1 MOL      0.106310
    110 H51        -3.1600   -2.1160    4.3660 hc        1 MOL      0.106310
    111 H52        -2.9960   -0.3740    3.9650 hc        1 MOL      0.106310
    112 N10         0.4260   -4.3580    0.3940 n         1 MOL     -0.015933
    113 C35         1.5440   -5.1930    0.0160 c3        1 MOL      0.029405
    114 C36         2.8460   -4.8200    0.7370 c         1 MOL      0.121358
    115 O17         3.7840   -5.6300    0.9390 o         1 MOL     -0.466706
    116 C37         1.7640   -5.3210   -1.5480 c3        1 MOL      0.374748
    117 C38         2.2120   -3.9360   -2.1010 c3        1 MOL     -0.083195
    118 O18         0.5670   -5.6640   -2.2430 oh        1 MOL     -0.680797
    119 H53         0.4530   -3.3620    0.2210 hn        1 MOL      0.240886
    120 H54         1.3300   -6.2280    0.2690 h1        1 MOL      0.099939
    121 H55         2.5360   -6.0680   -1.7230 h1        1 MOL      0.021561
    122 H56         0.7810   -5.5990   -3.1790 ho        1 MOL      0.386460
    123 H57         3.0370   -3.4770   -1.5560 hc        1 MOL      0.004726
    124 H58         2.4540   -3.9400   -3.1660 hc        1 MOL      0.004726
    125 H59         1.3620   -3.2600   -1.9570 hc        1 MOL      0.004726
    126 N11         2.9250   -3.6120    1.3040 n         1 MOL     -0.015892
    127 C39         4.0650   -3.0410    2.0080 c3        1 MOL     -0.102227
    128 C40         5.3010   -2.8360    1.0900 c         1 MOL      0.338653
    129 O19         5.5600   -3.5150    0.0970 o         1 MOL     -0.431308
    130 C41         4.3470   -3.7980    3.3580 c3        1 MOL      0.362407
    131 C42         5.1650   -3.0400    4.4380 c3        1 MOL     -0.240193
    132 O20         5.1030   -4.9890    3.1640 oh        1 MOL     -0.635279
    133 H60         2.2980   -2.9420    0.9110 hn        1 MOL      0.184504
    134 H61         3.7270   -2.0400    2.2830 h1        1 MOL      0.039842
    135 H62         3.3640   -4.0370    3.7680 h1        1 MOL     -0.009039
    136 H63         4.6360   -5.3720    2.4210 ho        1 MOL      0.429547
    137 H64         6.0540   -2.5630    4.0310 hc        1 MOL      0.063744
    138 H65         4.5730   -2.3360    5.0170 hc        1 MOL      0.063744
    139 H66         5.4820   -3.8080    5.1370 hc        1 MOL      0.063744
    140 N12         6.0540   -1.7900    1.3720 n         1 MOL     -0.048270
    141 C43         7.3490   -1.6070    0.7830 c3        1 MOL     -0.162052
    142 C44         7.3230   -0.8190   -0.5200 c         1 MOL      0.637401
    143 O21         8.1290   -0.9360   -1.4280 o         1 MOL     -0.575126
    144 C45         8.3440   -1.1500    1.8230 c3        1 MOL     -0.036925
    145 C46         8.1250    0.3510    2.1780 c3        1 MOL      0.011075
    146 C47         9.0970    0.7010    3.2930 c3        1 MOL     -0.043788
    147 C48         8.9810    2.2040    3.7210 c3        1 MOL     -0.039895
    148 N13         9.6300    3.1050    2.7200 n4        1 MOL     -0.258954
    149 H67         5.7220   -1.1680    2.0970 hn        1 MOL      0.170764
    150 H68         7.6850   -2.6110    0.5380 h1        1 MOL      0.129194
    151 H69         9.3470   -1.3230    1.4400 hc        1 MOL      0.048027
    152 H70         8.2170   -1.7840    2.7050 hc        1 MOL      0.048027
    153 H71         7.1460    0.5290    2.6040 hc        1 MOL      0.016027
    154 H72         8.2570    1.0210    1.3310 hc        1 MOL      0.016027
    155 H73        10.1420    0.4850    3.0710 hc        1 MOL      0.026035
    156 H74         8.7860   -0.0140    4.0590 hc        1 MOL      0.026035
    157 H75         9.5510    2.2990    4.6460 hx        1 MOL      0.103372
    158 H76         7.9260    2.3350    3.9260 hx        1 MOL      0.103372
    159 H77         9.3650    2.9380    1.7650 hn        1 MOL      0.300510
    160 H78         9.5260    4.0880    2.9040 hn        1 MOL      0.300510
    161 H79        10.6230    2.9200    2.7810 hn        1 MOL      0.300510
    162 N14         6.3090    0.0250   -0.6590 n         1 MOL     -0.476160
    163 C49         5.9210    0.6360   -2.0230 c3        1 MOL     -0.194839
    164 C50         6.8150    1.8190   -2.4240 c         1 MOL      0.674168
    165 O22         7.0240    2.7820   -1.7150 o         1 MOL     -0.547331
    166 C51         4.4560    0.9280   -2.0430 c3        1 MOL      0.109518
    167 C52         3.5540   -0.3140   -1.9470 c3        1 MOL      0.147788
    168 C53         3.4160   -1.1970   -3.1780 c         1 MOL      0.635295
    169 O23         2.3330   -1.1720   -3.7880 o         1 MOL     -0.729800
    170 O24         4.2670   -1.9980   -3.5290 o         1 MOL     -0.729800
    171 H80         5.6540    0.1970    0.0880 hn        1 MOL      0.238232
    172 H81         6.2090   -0.1400   -2.7400 h1        1 MOL      0.181086
    173 H82         4.1740    1.6060   -2.8500 hc        1 MOL     -0.026186
    174 H83         4.1570    1.5600   -1.2010 hc        1 MOL     -0.026186
    175 H84         2.5160   -0.0570   -1.7210 hc        1 MOL     -0.074843
    176 H85         3.8540   -0.8560   -1.0540 hc        1 MOL     -0.074843
    177 N15         7.1870    1.6570   -3.7250 n         1 MOL     -0.391672
    178 C54         8.1410    2.5060   -4.3830 c3        1 MOL     -0.209248
    179 H86         9.1500    2.1970   -4.1110 h1        1 MOL      0.097021
    180 H87         8.0170    2.4250   -5.4630 h1        1 MOL      0.097021
    181 H88         7.9830    3.5400   -4.0750 h1        1 MOL      0.097021
    182 H89         6.8310    0.9660   -4.3640 hn        1 MOL      0.308293
    183 Ca1        -0.2750   -1.4080   -4.1450 Ca        1 MOL      1.795064
    184 O25        -0.2070    1.3510   -4.4520 oh        1 MOL     -1.034664
    185 H90         0.0840    2.0570   -5.0250 ho        1 MOL      0.485138
    186 H91        -0.9410    1.7280   -3.9520 ho        1 MOL      0.485138
    187 O26        -1.5320   -3.2670   -2.8720 oh        1 MOL     -1.034664
    188 H92        -1.2850   -4.1930   -2.8380 ho        1 MOL      0.485138
    189 H93        -2.1700   -3.1680   -2.1580 ho        1 MOL      0.485138
@<TRIPOS>BOND
     1    1    2 1   
     2    1    4 1   
     3    1    5 1   
     4    1    6 1   
     5    2    3 2   
     6    2    7 1   
     7    7    8 1   
     8    7   15 1   
     9    8    9 1   
    10    8   11 1   
    11    8   16 1   
    12    9   10 2   
    13    9   19 1   
    14   11   12 1   
    15   11   17 1   
    16   11   18 1   
    17   12   13 1   
    18   12   14 1   
    19   19   20 1   
    20   19   28 1   
    21   20   21 1   
    22   20   23 1   
    23   20   29 1   
    24   21   22 2   
    25   21   41 1   
    26   23   24 1   
    27   23   30 1   
    28   23   31 1   
    29   24   25 1   
    30   24   32 1   
    31   24   33 1   
    32   25   26 1   
    33   25   34 1   
    34   25   35 1   
    35   26   27 1   
    36   26   36 1   
    37   26   37 1   
    38   27   38 1   
    39   27   39 1   
    40   27   40 1   
    41   41   42 1   
    42   41   49 1   
    43   42   43 1   
    44   42   45 1   
    45   42   50 1   
    46   43   44 2   
    47   43   53 1   
    48   45   46 1   
    49   45   51 1   
    50   45   52 1   
    51   46   47 1   
    52   46   48 1   
    53   53   54 1   
    54   53   57 1   
    55   54   55 1   
    56   54   58 1   
    57   54   59 1   
    58   55   56 2   
    59   55   60 1   
    60   60   61 1   
    61   60   68 1   
    62   61   62 1   
    63   61   64 1   
    64   61   69 1   
    65   62   63 2   
    66   62   72 1   
    67   64   65 1   
    68   64   70 1   
    69   64   71 1   
    70   65   66 1   
    71   65   67 1   
    72   72   73 1   
    73   72   76 1   
    74   73   74 1   
    75   73   77 1   
    76   73   78 1   
    77   74   75 2   
    78   74   79 1   
    79   79   80 1   
    80   79   86 1   
    81   80   81 1   
    82   80   83 1   
    83   80   87 1   
    84   81   82 2   
    85   81   93 1   
    86   83   84 1   
    87   83   85 1   
    88   83   88 1   
    89   84   90 1   
    90   84   91 1   
    91   84   92 1   
    92   85   89 1   
    93   93   94 1   
    94   93  101 1   
    95   94   95 1   
    96   94   97 1   
    97   94  102 1   
    98   95   96 2   
    99   95  112 1   
   100   97   98 1   
   101   97   99 1   
   102   97  103 1   
   103   98  100 1   
   104   98  104 1   
   105   98  105 1   
   106   99  106 1   
   107   99  107 1   
   108   99  108 1   
   109  100  109 1   
   110  100  110 1   
   111  100  111 1   
   112  112  113 1   
   113  112  119 1   
   114  113  114 1   
   115  113  116 1   
   116  113  120 1   
   117  114  115 2   
   118  114  126 1   
   119  116  117 1   
   120  116  118 1   
   121  116  121 1   
   122  117  123 1   
   123  117  124 1   
   124  117  125 1   
   125  118  122 1   
   126  126  127 1   
   127  126  133 1   
   128  127  128 1   
   129  127  130 1   
   130  127  134 1   
   131  128  129 2   
   132  128  140 1   
   133  130  131 1   
   134  130  132 1   
   135  130  135 1   
   136  131  137 1   
   137  131  138 1   
   138  131  139 1   
   139  132  136 1   
   140  140  141 1   
   141  140  149 1   
   142  141  142 1   
   143  141  144 1   
   144  141  150 1   
   145  142  143 2   
   146  142  162 1   
   147  144  145 1   
   148  144  151 1   
   149  144  152 1   
   150  145  146 1   
   151  145  153 1   
   152  145  154 1   
   153  146  147 1   
   154  146  155 1   
   155  146  156 1   
   156  147  148 1   
   157  147  157 1   
   158  147  158 1   
   159  148  159 1   
   160  148  160 1   
   161  148  161 1   
   162  162  163 1   
   163  162  171 1   
   164  163  164 1   
   165  163  166 1   
   166  163  172 1   
   167  164  165 2   
   168  164  177 1   
   169  166  167 1   
   170  166  173 1   
   171  166  174 1   
   172  167  168 1   
   173  167  175 1   
   174  167  176 1   
   175  168  169 1   
   176  168  170 1   
   177  177  178 1   
   178  177  182 1   
   179  178  179 1   
   180  178  180 1   
   181  178  181 1   
   182  184  185 1   
   183  184  186 1   
   184  187  188 1   
   185  187  189 1   
@<TRIPOS>SUBSTRUCTURE
     1 MOL         1 TEMP              0 ****  ****    0 ROOT
