@<TRIPOS>MOLECULE
MOL
  181   177     1     0     0
SMALL
resp


@<TRIPOS>ATOM
      1 C1         -0.9680   -5.7870   -3.1440 c3        1 MOL     -0.549039
      2 C2         -2.3340   -5.9560   -2.6170 c         1 MOL      0.760047
      3 O1         -2.4640   -6.7780   -1.7150 o         1 MOL     -0.613735
      4 H1         -1.0100   -5.2700   -4.1030 hc        1 MOL      0.133553
      5 H2         -0.3770   -5.2000   -2.4410 hc        1 MOL      0.133553
      6 H3         -0.5060   -6.7650   -3.2790 hc        1 MOL      0.133553
      7 N1         -3.3020   -5.1790   -3.0400 n         1 MOL     -0.529820
      8 C3         -4.5800   -5.1150   -2.3150 c3        1 MOL      0.010568
      9 C4         -4.4570   -4.2250   -1.0600 c         1 MOL      0.515167
     10 O2         -4.0500   -3.0650   -1.1500 o         1 MOL     -0.535256
     11 C5         -5.6810   -4.6750   -3.2910 c3        1 MOL     -0.083279
     12 C6         -7.1080   -4.8160   -2.7010 c         1 MOL      0.708721
     13 O3         -7.9200   -5.6620   -3.1820 o         1 MOL     -0.733888
     14 O4         -7.4330   -4.0010   -1.8660 o         1 MOL     -0.733888
     15 H4         -3.1730   -4.5270   -3.8020 hn        1 MOL      0.287685
     16 H5         -4.7090   -6.1430   -1.9740 h1        1 MOL      0.066981
     17 H6         -5.7150   -5.3730   -4.1220 hc        1 MOL     -0.001364
     18 H7         -5.5870   -3.6360   -3.6140 hc        1 MOL     -0.001364
     19 N2         -4.9190   -4.7350    0.0350 n         1 MOL     -0.305014
     20 C7         -4.9080   -4.1840    1.3600 c3        1 MOL      0.080717
     21 C8         -3.4760   -4.1770    1.9660 c         1 MOL      0.517731
     22 O5         -2.6770   -5.0580    1.7060 o         1 MOL     -0.533054
     23 C9         -5.9480   -5.0060    2.1800 c3        1 MOL     -0.268918
     24 H8         -5.3900   -5.6310   -0.0590 hn        1 MOL      0.251848
     25 H9         -5.2720   -3.1560    1.2950 h1        1 MOL      0.118545
     26 H10        -5.5370   -6.0060    2.3220 hc        1 MOL      0.072870
     27 H11        -6.2190   -4.5130    3.1140 hc        1 MOL      0.072870
     28 H12        -6.8450   -5.1650    1.5790 hc        1 MOL      0.072870
     29 N3         -3.1230   -3.2920    2.8720 n         1 MOL     -0.454168
     30 C10        -3.9340   -2.1810    3.4270 c3        1 MOL      0.323721
     31 C11        -4.1990   -1.0960    2.3160 c         1 MOL      0.161199
     32 O6         -3.4210   -0.8610    1.4370 o         1 MOL     -0.376683
     33 C12        -3.3200   -1.6070    4.7430 c3        1 MOL     -0.459357
     34 C13        -1.8210   -1.5280    4.7600 c         1 MOL      0.773827
     35 O7         -1.2370   -1.0290    3.8040 o         1 MOL     -0.687511
     36 O8         -1.1290   -2.0010    5.7290 o         1 MOL     -0.687511
     37 H13        -2.1670   -3.3830    3.1640 hn        1 MOL      0.290524
     38 H14        -4.8930   -2.6450    3.6850 h1        1 MOL      0.009258
     39 H15        -3.6720   -2.1920    5.5980 hc        1 MOL      0.077800
     40 H16        -3.7950   -0.6320    4.8560 hc        1 MOL      0.077800
     41 N4         -5.3600   -0.4290    2.4130 n         1 MOL     -0.205800
     42 C14        -5.6900    0.6450    1.4480 c3        1 MOL     -0.415163
     43 C15        -7.1950    0.9980    1.3820 c         1 MOL      0.917342
     44 O9         -8.0240    0.2390    1.8510 o         1 MOL     -0.594063
     45 H17        -5.9480   -0.5420    3.2190 hn        1 MOL      0.231500
     46 H18        -5.2950    0.3820    0.4640 h1        1 MOL      0.197225
     47 H19        -5.2060    1.4350    2.0330 h1        1 MOL      0.197225
     48 N5         -7.4870    2.1900    0.8790 n         1 MOL     -0.825816
     49 C16        -6.6630    3.2570    0.3420 c3        1 MOL      0.383172
     50 C17        -6.2620    2.9800   -1.1430 c         1 MOL      0.376456
     51 O10        -6.9930    2.2690   -1.8630 o         1 MOL     -0.472931
     52 C18        -7.5570    4.5210    0.2810 c3        1 MOL     -0.317651
     53 C19        -6.8390    5.8830    0.3970 c         1 MOL      0.613272
     54 N6         -7.5900    6.8750    0.9260 n         1 MOL     -0.805480
     55 O11        -5.6880    6.1180    0.0980 o         1 MOL     -0.505850
     56 H20        -8.4650    2.3630    0.6820 hn        1 MOL      0.351644
     57 H21        -5.7690    3.3420    0.9480 h1        1 MOL     -0.017621
     58 H22        -8.3790    4.5150    1.0040 hc        1 MOL      0.108080
     59 H23        -8.0130    4.5080   -0.7070 hc        1 MOL      0.108080
     60 H24        -8.5530    6.6680    1.1460 hn        1 MOL      0.371827
     61 H25        -7.1280    7.7600    1.0490 hn        1 MOL      0.371827
     62 N7         -5.1240    3.5070   -1.5580 n         1 MOL     -0.297397
     63 C20        -4.5330    3.1320   -2.7700 c3        1 MOL     -0.046913
     64 C21        -3.3030    4.0010   -3.0890 c         1 MOL      0.425737
     65 O12        -3.2280    4.5690   -4.1760 o         1 MOL     -0.531548
     66 H26        -4.6370    4.1150   -0.9080 hn        1 MOL      0.173335
     67 H27        -5.3060    3.2500   -3.5270 h1        1 MOL      0.101102
     68 H28        -4.1450    2.1080   -2.7610 h1        1 MOL      0.101102
     69 N8         -2.4210    4.0820   -2.1060 n         1 MOL     -0.115350
     70 C22        -1.1630    4.8270   -1.9840 c3        1 MOL      0.006298
     71 C23        -0.0040    3.8130   -1.7450 c         1 MOL      0.523392
     72 O13        -0.2440    2.6520   -1.7690 o         1 MOL     -0.525371
     73 C24        -1.2330    5.8540   -0.8470 c3        1 MOL      0.416475
     74 C25        -2.3630    6.8130   -0.9130 c3        1 MOL     -0.439765
     75 O14        -1.1030    5.2190    0.4340 oh        1 MOL     -0.628903
     76 H29        -2.5850    3.3970   -1.3950 hn        1 MOL      0.139088
     77 H30        -0.8680    5.3200   -2.9030 h1        1 MOL      0.033747
     78 H31        -0.3440    6.4840   -0.9390 h1        1 MOL     -0.043219
     79 H32        -0.6840    5.8850    0.9700 ho        1 MOL      0.408928
     80 H33        -2.6430    7.0650   -1.9370 hc        1 MOL      0.108516
     81 H34        -3.1760    6.2880   -0.4100 hc        1 MOL      0.108516
     82 H35        -2.1390    7.7550   -0.4090 hc        1 MOL      0.108516
     83 N9          1.2390    4.2850   -1.5830 n         1 MOL     -0.411589
     84 C26         2.4420    3.4880   -1.2110 c3        1 MOL     -0.055109
     85 C27         2.7490    3.6400    0.2580 c         1 MOL      0.405644
     86 O15         2.7540    4.7200    0.7960 o         1 MOL     -0.552163
     87 C28         3.6320    3.9640   -2.0780 c3        1 MOL      0.292166
     88 C29         4.9020    3.2060   -1.7290 c3        1 MOL      0.222681
     89 C30         3.2550    3.9250   -3.5920 c3        1 MOL     -0.393147
     90 C31         6.2210    3.7740   -2.1180 c3        1 MOL     -0.207396
     91 H36         1.3880    5.2890   -1.6760 hn        1 MOL      0.243824
     92 H37         2.2460    2.4260   -1.3720 h1        1 MOL      0.231692
     93 H38         3.8390    5.0030   -1.8260 hc        1 MOL     -0.049232
     94 H39         4.8260    2.1780   -2.0760 hc        1 MOL     -0.069501
     95 H40         4.9250    3.2380   -0.6340 hc        1 MOL     -0.069501
     96 H41         2.5150    4.6590   -3.8860 hc        1 MOL      0.079741
     97 H42         4.1610    4.1390   -4.1650 hc        1 MOL      0.079741
     98 H43         2.7880    2.9540   -3.7450 hc        1 MOL      0.079741
     99 H44         6.4250    3.7130   -3.1920 hc        1 MOL      0.030376
    100 H45         6.2590    4.7930   -1.7340 hc        1 MOL      0.030376
    101 H46         7.0130    3.2230   -1.6130 hc        1 MOL      0.030376
    102 N10         2.9640    2.4870    0.9270 n         1 MOL     -0.194203
    103 C32         3.5010    2.4820    2.3210 c3        1 MOL      0.120542
    104 C33         4.7400    1.5630    2.5470 c         1 MOL      0.365449
    105 O16         5.5030    1.6720    3.5230 o         1 MOL     -0.518343
    106 C34         2.4390    2.3320    3.3660 c3        1 MOL     -0.170008
    107 C35         1.2430    1.4300    2.8880 c         1 MOL      0.830298
    108 O17         0.1870    1.9670    2.5180 o         1 MOL     -0.774892
    109 O18         1.2670    0.1770    3.0710 o         1 MOL     -0.774892
    110 H47         2.8530    1.6000    0.4650 hn        1 MOL      0.068689
    111 H48         3.9600    3.4430    2.5240 h1        1 MOL      0.078293
    112 H49         2.1510    3.3380    3.6720 hc        1 MOL      0.040232
    113 H50         2.8800    2.0370    4.3150 hc        1 MOL      0.040232
    114 N11         5.0600    0.7870    1.4940 n         1 MOL     -0.361446
    115 C36         6.2930   -0.0220    1.4840 c3        1 MOL      0.296199
    116 C37         6.1120   -1.2740    0.5720 c         1 MOL      0.305575
    117 O19         6.7550   -1.3580   -0.4980 o         1 MOL     -0.454538
    118 C38         7.4760    0.9570    1.1200 c3        1 MOL     -0.262059
    119 C39         8.9120    0.4770    1.3210 ca        1 MOL      0.041909
    120 C40         9.6490   -0.1400    0.2760 ca        1 MOL     -0.131288
    121 C41         9.4290    0.3170    2.6630 ca        1 MOL     -0.131288
    122 C42        10.8130   -0.7410    0.4260 ca        1 MOL     -0.146122
    123 C43        10.7090   -0.3430    2.8490 ca        1 MOL     -0.146122
    124 C44        11.4130   -0.8310    1.6670 ca        1 MOL     -0.093880
    125 H51         4.4340    0.7050    0.7000 hn        1 MOL      0.192670
    126 H52         6.4200   -0.3380    2.5130 h1        1 MOL      0.017269
    127 H53         7.3990    1.8230    1.7820 hc        1 MOL      0.114627
    128 H54         7.3960    1.2550    0.0780 hc        1 MOL      0.114627
    129 H55         9.1760   -0.1890   -0.7000 ha        1 MOL      0.118676
    130 H56         8.8900    0.7500    3.4970 ha        1 MOL      0.118676
    131 H57        11.3230   -1.0510   -0.4770 ha        1 MOL      0.106939
    132 H58        11.1170   -0.5100    3.8360 ha        1 MOL      0.106939
    133 H59        12.3790   -1.2920    1.7840 ha        1 MOL      0.086170
    134 N12         5.1000   -2.1190    0.8020 n         1 MOL     -0.141412
    135 C45         4.8000   -3.4340    0.1400 c3        1 MOL      0.035652
    136 C46         4.5530   -3.2460   -1.3120 c         1 MOL      0.169590
    137 O20         4.9280   -4.1870   -2.0240 o         1 MOL     -0.502197
    138 C47         3.6040   -3.9900    0.9000 c3        1 MOL      0.006420
    139 C48         3.7700   -3.4660    2.2790 c3        1 MOL     -0.249930
    140 C49         4.2350   -2.0420    1.9600 c3        1 MOL     -0.041917
    141 H60         5.6260   -4.1420    0.2540 h1        1 MOL      0.091377
    142 H61         2.6960   -3.6040    0.4320 hc        1 MOL      0.068769
    143 H62         3.5780   -5.0780    0.9320 hc        1 MOL      0.068769
    144 H63         2.8160   -3.4160    2.8050 hc        1 MOL      0.082368
    145 H64         4.5130   -4.0290    2.8490 hc        1 MOL      0.082368
    146 H65         3.3850   -1.4340    1.6420 h1        1 MOL      0.112296
    147 H66         4.7480   -1.5930    2.8080 h1        1 MOL      0.112296
    148 N13         4.0360   -2.1710   -1.8450 n         1 MOL     -0.017793
    149 C50         3.7360   -2.0390   -3.2910 c3        1 MOL     -0.164204
    150 C51         5.0010   -1.8400   -4.0900 c         1 MOL      0.500336
    151 O21         5.1470   -2.3960   -5.1810 o         1 MOL     -0.543228
    152 C52         2.8380   -0.7430   -3.5150 c3        1 MOL      0.153523
    153 C53         1.6740   -0.4800   -2.5730 c3        1 MOL     -0.194015
    154 C54         1.9660   -0.1460   -1.1190 c         1 MOL      0.503489
    155 O22         1.0770   -0.2760   -0.2160 o         1 MOL     -0.627371
    156 O23         3.0840    0.1750   -0.7820 o         1 MOL     -0.627371
    157 H67         3.8840   -1.3140   -1.3360 hn        1 MOL      0.263516
    158 H68         3.2100   -2.9320   -3.6170 h1        1 MOL      0.116832
    159 H69         2.4610   -0.9220   -4.5130 hc        1 MOL     -0.045287
    160 H70         3.4160    0.1810   -3.4700 hc        1 MOL     -0.045287
    161 H71         1.0430   -1.3700   -2.6720 hc        1 MOL      0.072343
    162 H72         1.2310    0.4340   -2.9860 hc        1 MOL      0.072343
    163 N14         5.9510   -1.0530   -3.4980 n         1 MOL     -0.145562
    164 C55         7.2570   -0.8650   -4.1270 c3        1 MOL     -0.399733
    165 H73         7.1270   -0.3680   -5.0880 h1        1 MOL      0.134500
    166 H74         7.8860   -0.2510   -3.4830 h1        1 MOL      0.134500
    167 H75         7.7290   -1.8350   -4.2810 h1        1 MOL      0.134500
    168 H76         5.8540   -0.8120   -2.5270 hn        1 MOL      0.185628
    169 Ca1        -0.7920   -0.2380    1.4140 Ca        1 MOL      1.705804
    170 O24        -2.2770    1.6400    2.9540 oh        1 MOL     -0.841257
    171 H77        -1.3790    1.8330    3.2070 ho        1 MOL      0.398543
    172 H78        -2.8110    2.0150    3.6430 ho        1 MOL      0.398543
    173 O25        -1.6100   -2.1260   -0.1500 oh        1 MOL     -0.841257
    174 H79        -2.4520   -2.5290   -0.3620 ho        1 MOL      0.398543
    175 H80        -0.9540   -2.7680   -0.4560 ho        1 MOL      0.398543
    176 O26         0.0860   -2.9240    2.1330 oh        1 MOL     -0.841257
    177 H81         0.3170   -3.8520    2.2450 ho        1 MOL      0.398543
    178 H82         0.2560   -2.5300    2.9900 ho        1 MOL      0.398543
    179 O27        -1.9450    1.0930   -0.5610 oh        1 MOL     -0.841257
    180 H83        -1.2900    1.6290   -1.0020 ho        1 MOL      0.398543
    181 H84        -2.5470    1.7240   -0.1670 ho        1 MOL      0.398543
@<TRIPOS>BOND
     1    1    2 1   
     2    1    4 1   
     3    1    5 1   
     4    1    6 1   
     5    2    3 2   
     6    2    7 1   
     7    7    8 1   
     8    7   15 1   
     9    8    9 1   
    10    8   11 1   
    11    8   16 1   
    12    9   10 2   
    13    9   19 1   
    14   11   12 1   
    15   11   17 1   
    16   11   18 1   
    17   12   13 1   
    18   12   14 1   
    19   19   20 1   
    20   19   24 1   
    21   20   21 1   
    22   20   23 1   
    23   20   25 1   
    24   21   22 2   
    25   21   29 1   
    26   23   26 1   
    27   23   27 1   
    28   23   28 1   
    29   29   30 1   
    30   29   37 1   
    31   30   31 1   
    32   30   33 1   
    33   30   38 1   
    34   31   32 2   
    35   31   41 1   
    36   33   34 1   
    37   33   39 1   
    38   33   40 1   
    39   34   35 1   
    40   34   36 1   
    41   41   42 1   
    42   41   45 1   
    43   42   43 1   
    44   42   46 1   
    45   42   47 1   
    46   43   44 2   
    47   43   48 1   
    48   48   49 1   
    49   48   56 1   
    50   49   50 1   
    51   49   52 1   
    52   49   57 1   
    53   50   51 2   
    54   50   62 1   
    55   52   53 1   
    56   52   58 1   
    57   52   59 1   
    58   53   54 1   
    59   53   55 2   
    60   54   60 1   
    61   54   61 1   
    62   62   63 1   
    63   62   66 1   
    64   63   64 1   
    65   63   67 1   
    66   63   68 1   
    67   64   65 2   
    68   64   69 1   
    69   69   70 1   
    70   69   76 1   
    71   70   71 1   
    72   70   73 1   
    73   70   77 1   
    74   71   72 2   
    75   71   83 1   
    76   73   74 1   
    77   73   75 1   
    78   73   78 1   
    79   74   80 1   
    80   74   81 1   
    81   74   82 1   
    82   75   79 1   
    83   83   84 1   
    84   83   91 1   
    85   84   85 1   
    86   84   87 1   
    87   84   92 1   
    88   85   86 2   
    89   85  102 1   
    90   87   88 1   
    91   87   89 1   
    92   87   93 1   
    93   88   90 1   
    94   88   94 1   
    95   88   95 1   
    96   89   96 1   
    97   89   97 1   
    98   89   98 1   
    99   90   99 1   
   100   90  100 1   
   101   90  101 1   
   102  102  103 1   
   103  102  110 1   
   104  103  104 1   
   105  103  106 1   
   106  103  111 1   
   107  104  105 2   
   108  104  114 1   
   109  106  107 1   
   110  106  112 1   
   111  106  113 1   
   112  107  108 1   
   113  107  109 1   
   114  114  115 1   
   115  114  125 1   
   116  115  116 1   
   117  115  118 1   
   118  115  126 1   
   119  116  117 2   
   120  116  134 1   
   121  118  119 1   
   122  118  127 1   
   123  118  128 1   
   124  119  120 ar  
   125  119  121 ar  
   126  120  122 ar  
   127  120  129 1   
   128  121  123 ar  
   129  121  130 1   
   130  122  124 ar  
   131  122  131 1   
   132  123  124 ar  
   133  123  132 1   
   134  124  133 1   
   135  134  135 1   
   136  134  140 1   
   137  135  136 1   
   138  135  138 1   
   139  135  141 1   
   140  136  137 2   
   141  136  148 1   
   142  138  139 1   
   143  138  142 1   
   144  138  143 1   
   145  139  140 1   
   146  139  144 1   
   147  139  145 1   
   148  140  146 1   
   149  140  147 1   
   150  148  149 1   
   151  148  157 1   
   152  149  150 1   
   153  149  152 1   
   154  149  158 1   
   155  150  151 2   
   156  150  163 1   
   157  152  153 1   
   158  152  159 1   
   159  152  160 1   
   160  153  154 1   
   161  153  161 1   
   162  153  162 1   
   163  154  155 1   
   164  154  156 1   
   165  163  164 1   
   166  163  168 1   
   167  164  165 1   
   168  164  166 1   
   169  164  167 1   
   170  170  171 1   
   171  170  172 1   
   172  173  174 1   
   173  173  175 1   
   174  176  177 1   
   175  176  178 1   
   176  179  180 1   
   177  179  181 1   
@<TRIPOS>SUBSTRUCTURE
     1 MOL         1 TEMP              0 ****  ****    0 ROOT
