@<TRIPOS>MOLECULE
MOL
  178   175     1     0     0
SMALL
resp


@<TRIPOS>ATOM
      1 C1         -1.7170    6.4610    1.9770 c3        1 MOL     -0.323983
      2 C2         -2.8830    5.8860    1.0100 c         1 MOL      0.692486
      3 O1         -2.7670    6.0270   -0.2440 o         1 MOL     -0.582835
      4 H1         -2.0980    6.5440    2.9960 hc        1 MOL      0.077346
      5 H2         -0.8650    5.7810    1.9640 hc        1 MOL      0.077346
      6 H3         -1.4040    7.4430    1.6250 hc        1 MOL      0.077346
      7 N1         -3.8990    5.2730    1.6110 n         1 MOL     -0.670708
      8 C3         -5.1270    4.9050    0.8420 c3        1 MOL      0.295566
      9 C4         -4.8420    3.7800   -0.1360 c         1 MOL      0.697147
     10 O2         -4.0890    2.8410    0.0590 o         1 MOL     -0.621943
     11 C5         -6.3260    4.5440    1.7860 c3        1 MOL     -0.382556
     12 C6         -6.9440    5.7060    2.6090 c         1 MOL      0.742858
     13 O3         -6.4330    6.8450    2.6410 o         1 MOL     -0.726479
     14 O4         -8.0220    5.4290    3.1830 o         1 MOL     -0.726479
     15 H4         -4.0730    5.0620    2.5880 hn        1 MOL      0.361393
     16 H5         -5.3750    5.7780    0.2500 h1        1 MOL      0.015060
     17 H6         -6.0280    3.7500    2.4710 hc        1 MOL      0.074994
     18 H7         -7.1060    4.2460    1.1010 hc        1 MOL      0.074994
     19 N2         -5.6230    3.8120   -1.2310 n         1 MOL     -0.712433
     20 C7         -5.5740    2.8430   -2.3220 c3        1 MOL      0.375077
     21 C8         -4.1700    2.8890   -3.0510 c         1 MOL      0.318450
     22 O5         -3.3590    3.8650   -2.9010 o         1 MOL     -0.485320
     23 C9         -6.6640    3.2640   -3.3190 c3        1 MOL     -0.320335
     24 H8         -6.3410    4.4950   -1.3840 hn        1 MOL      0.336638
     25 H9         -5.8350    1.8660   -1.9200 h1        1 MOL      0.091332
     26 H10        -7.0370    2.4620   -3.9510 hc        1 MOL      0.077235
     27 H11        -7.5290    3.5660   -2.7190 hc        1 MOL      0.077235
     28 H12        -6.4400    4.1160   -3.9660 hc        1 MOL      0.077235
     29 N3         -3.5750    1.8090   -3.5990 n         1 MOL     -0.307288
     30 C10        -4.2530    0.5440   -3.8240 c3        1 MOL     -0.001297
     31 C11        -4.5970   -0.2320   -2.5240 c         1 MOL      0.217921
     32 O6         -4.0200   -0.0730   -1.4760 o         1 MOL     -0.381406
     33 C12        -3.5470   -0.2500   -4.9120 c3        1 MOL     -0.032991
     34 C13        -2.0680   -0.5960   -4.5640 c         1 MOL      0.621050
     35 O7         -1.5900   -0.3850   -3.4380 o         1 MOL     -0.674346
     36 O8         -1.4170   -1.2680   -5.4470 o         1 MOL     -0.674346
     37 H13        -2.6100    1.9010   -3.8780 hn        1 MOL      0.253366
     38 H14        -5.2110    0.7570   -4.2930 h1        1 MOL      0.033676
     39 H15        -3.4990    0.2690   -5.8690 hc        1 MOL      0.008835
     40 H16        -4.0670   -1.2070   -5.0090 hc        1 MOL      0.008835
     41 N4         -5.5380   -1.1700   -2.7020 n         1 MOL     -0.181331
     42 C14        -6.0310   -1.9610   -1.6310 c3        1 MOL     -0.164379
     43 C15        -7.4990   -1.5540   -1.1560 c         1 MOL      0.674400
     44 O9         -8.2430   -0.8410   -1.7620 o         1 MOL     -0.566764
     45 H17        -6.1070   -1.1160   -3.5320 hn        1 MOL      0.232699
     46 H18        -5.3590   -1.8630   -0.7840 h1        1 MOL      0.073536
     47 H19        -5.8210   -3.0100   -1.8820 h1        1 MOL      0.073536
     48 N5         -7.9890   -2.1880   -0.0970 n         1 MOL     -0.619764
     49 C16        -7.2950   -3.1660    0.8130 c3        1 MOL      0.194952
     50 C17        -6.0430   -2.6010    1.5590 c         1 MOL      0.554535
     51 O10        -5.9740   -1.3840    1.8370 o         1 MOL     -0.519577
     52 C18        -8.3730   -3.5520    1.8310 c3        1 MOL     -0.288013
     53 C19        -7.9800   -4.7830    2.6680 c         1 MOL      0.646805
     54 N6         -8.6730   -5.1310    3.7030 n         1 MOL     -0.773001
     55 O11        -6.9270   -5.3570    2.4790 o         1 MOL     -0.539120
     56 H20        -8.9870   -2.0390   -0.0090 hn        1 MOL      0.343661
     57 H21        -6.9610   -4.0470    0.2480 h1        1 MOL      0.006187
     58 H22        -9.2800   -3.8240    1.2820 hc        1 MOL      0.092686
     59 H23        -8.5910   -2.7440    2.5220 hc        1 MOL      0.092686
     60 H24        -9.5780   -4.7330    3.8970 hn        1 MOL      0.362247
     61 H25        -8.2790   -5.8420    4.3020 hn        1 MOL      0.362247
     62 N7         -4.9730   -3.4230    1.5960 n         1 MOL     -0.309866
     63 C20        -3.6470   -3.1000    2.1520 c3        1 MOL     -0.249986
     64 C21        -2.6310   -4.1590    1.8640 c         1 MOL      0.567183
     65 O12        -2.6880   -5.3280    2.3770 o         1 MOL     -0.554759
     66 H26        -5.0730   -4.3710    1.2760 hn        1 MOL      0.243111
     67 H27        -3.7580   -3.1930    3.2250 h1        1 MOL      0.141733
     68 H28        -3.2740   -2.1650    1.7370 h1        1 MOL      0.141733
     69 N8         -1.6440   -3.7390    1.0640 n         1 MOL     -0.396154
     70 C22        -0.3660   -4.4740    0.8660 c3        1 MOL     -0.003952
     71 C23         0.6980   -3.4290    1.0740 c         1 MOL      0.544529
     72 O13         0.5470   -2.2450    0.6830 o         1 MOL     -0.442444
     73 C24        -0.3230   -5.0860   -0.5230 c3        1 MOL      0.500689
     74 C25         0.9080   -5.8670   -0.9170 c3        1 MOL     -0.380606
     75 O14        -1.4690   -5.8990   -0.7000 oh        1 MOL     -0.646761
     76 H29        -1.7260   -2.8450    0.5990 hn        1 MOL      0.180242
     77 H30        -0.2510   -5.2940    1.5770 h1        1 MOL      0.069705
     78 H31        -0.4090   -4.2750   -1.2390 h1        1 MOL     -0.016383
     79 H32        -2.1820   -5.3280   -0.9930 ho        1 MOL      0.361592
     80 H33         0.9880   -6.8430   -0.4420 hc        1 MOL      0.101271
     81 H34         0.9140   -5.9710   -2.0000 hc        1 MOL      0.101271
     82 H35         1.8650   -5.4520   -0.5830 hc        1 MOL      0.101271
     83 N9          1.8580   -3.8690    1.7070 n         1 MOL     -0.642740
     84 C26         3.0860   -3.0410    1.9050 c3        1 MOL      0.012386
     85 C27         3.9020   -3.0850    0.6150 c         1 MOL      0.559310
     86 O15         4.2770   -4.1710    0.2230 o         1 MOL     -0.580033
     87 C28         3.9140   -3.5720    3.1120 c3        1 MOL      0.194543
     88 C29         5.1280   -2.8840    3.6650 c3        1 MOL     -0.025541
     89 C30         3.0290   -3.7420    4.3770 c3        1 MOL     -0.331711
     90 C31         5.8660   -2.0720    2.5600 c3        1 MOL     -0.059967
     91 H36         1.8200   -4.8170    2.0640 hn        1 MOL      0.330186
     92 H37         2.7860   -2.0170    2.1060 h1        1 MOL      0.232394
     93 H38         4.2300   -4.5430    2.7230 hc        1 MOL     -0.010503
     94 H39         5.7740   -3.6310    4.1270 hc        1 MOL      0.005398
     95 H40         4.8920   -2.1200    4.3950 hc        1 MOL      0.005398
     96 H41         2.2370   -4.4760    4.2770 hc        1 MOL      0.070129
     97 H42         3.6130   -4.0810    5.2410 hc        1 MOL      0.070129
     98 H43         2.5380   -2.8010    4.5970 hc        1 MOL      0.070129
     99 H44         6.6570   -1.4200    2.9290 hc        1 MOL     -0.006342
    100 H45         6.2540   -2.6080    1.6950 hc        1 MOL     -0.006342
    101 H46         5.1140   -1.3460    2.2590 hc        1 MOL     -0.006342
    102 N10         4.0620   -1.9780   -0.1790 n         1 MOL     -0.231362
    103 C32         4.6230   -2.0710   -1.5670 c3        1 MOL     -0.245175
    104 C33         5.2480   -0.6850   -1.9950 c         1 MOL      0.741365
    105 O16         5.5390   -0.4000   -3.1620 o         1 MOL     -0.532048
    106 C34         3.6340   -2.6010   -2.5710 c3        1 MOL      0.026083
    107 C35         2.2750   -1.8930   -2.4890 c         1 MOL      0.789194
    108 O17         1.2210   -2.6240   -2.2690 o         1 MOL     -0.802101
    109 O18         2.2060   -0.6320   -2.4750 o         1 MOL     -0.802101
    110 H47         3.5830   -1.1480    0.1290 hn        1 MOL      0.161952
    111 H48         5.3870   -2.8430   -1.5490 h1        1 MOL      0.160774
    112 H49         3.3920   -3.6630   -2.4660 hc        1 MOL      0.003807
    113 H50         4.0270   -2.4210   -3.5720 hc        1 MOL      0.003807
    114 N11         5.5230    0.1650   -0.9690 n         1 MOL     -0.800441
    115 C36         6.3580    1.3260   -1.0680 c3        1 MOL      0.494610
    116 C37         5.7840    2.4670   -0.1950 c         1 MOL      0.183228
    117 O19         6.4280    2.8420    0.7980 o         1 MOL     -0.495318
    118 C38         7.7900    0.9170   -0.6950 c3        1 MOL     -0.340383
    119 C39         8.4660    0.0290   -1.7280 ca        1 MOL      0.256922
    120 C40         8.4160   -1.3800   -1.6140 ca        1 MOL     -0.237235
    121 C41         9.3110    0.6750   -2.5850 ca        1 MOL     -0.237235
    122 C42         9.0470   -2.1690   -2.5980 ca        1 MOL     -0.091530
    123 C43        10.0230   -0.1430   -3.4750 ca        1 MOL     -0.091530
    124 C44         9.8880   -1.5860   -3.5490 ca        1 MOL     -0.138637
    125 H51         4.9920    0.0690   -0.1180 hn        1 MOL      0.367713
    126 H52         6.3980    1.7110   -2.0800 h1        1 MOL     -0.004367
    127 H53         7.6840    0.4450    0.2770 hc        1 MOL      0.077966
    128 H54         8.4390    1.7810   -0.6070 hc        1 MOL      0.077966
    129 H55         7.7310   -1.8360   -0.9070 ha        1 MOL      0.135703
    130 H56         9.5770    1.7170   -2.5160 ha        1 MOL      0.135703
    131 H57         8.9400   -3.2380   -2.4890 ha        1 MOL      0.093191
    132 H58        10.8310    0.2670   -4.0670 ha        1 MOL      0.093191
    133 H59        10.4590   -2.0480   -4.3460 ha        1 MOL      0.105407
    134 N12         4.5490    2.9890   -0.4820 n         1 MOL      0.017966
    135 C45         3.9160    4.1120    0.2580 c3        1 MOL      0.031957
    136 C46         3.9190    3.9320    1.7800 c         1 MOL      0.258577
    137 O20         4.1260    4.9060    2.5590 o         1 MOL     -0.528883
    138 C47         2.5410    4.1960   -0.3800 c3        1 MOL     -0.125408
    139 C48         2.9150    3.8910   -1.8640 c3        1 MOL      0.011639
    140 C49         3.8480    2.7060   -1.7280 c3        1 MOL     -0.077344
    141 H60         4.5160    5.0000    0.0750 h1        1 MOL      0.052962
    142 H61         1.9270    3.4240    0.0750 hc        1 MOL      0.084717
    143 H62         2.1250    5.2000   -0.3270 hc        1 MOL      0.084717
    144 H63         1.9950    3.6360   -2.3950 hc        1 MOL     -0.001636
    145 H64         3.4730    4.6980   -2.3360 hc        1 MOL     -0.001636
    146 H65         3.2270    1.8160   -1.7950 h1        1 MOL      0.074198
    147 H66         4.5790    2.7700   -2.5290 h1        1 MOL      0.074198
    148 N13         3.8220    2.7200    2.1980 n         1 MOL     -0.093425
    149 C50         3.7180    2.2710    3.6330 c3        1 MOL     -0.106813
    150 C51         5.1220    2.3200    4.2020 c         1 MOL      0.548983
    151 O21         5.1970    2.6230    5.4070 o         1 MOL     -0.581825
    152 C52         3.3470    0.8050    3.6430 c3        1 MOL      0.117735
    153 C53         1.9420    0.5850    3.0040 c3        1 MOL     -0.238533
    154 C54         1.8650    0.5000    1.4590 c         1 MOL      0.581483
    155 O22         0.7600    0.4870    0.9020 o         1 MOL     -0.686761
    156 O23         2.9450    0.3920    0.8400 o         1 MOL     -0.686761
    157 H67         3.8870    2.0000    1.5030 hn        1 MOL      0.283597
    158 H68         3.2000    2.9180    4.3510 h1        1 MOL      0.112614
    159 H69         3.2840    0.5640    4.7020 hc        1 MOL     -0.027542
    160 H70         4.1530    0.2390    3.1680 hc        1 MOL     -0.027542
    161 H71         1.3230    1.4280    3.3320 hc        1 MOL      0.063605
    162 H72         1.4620   -0.3250    3.3640 hc        1 MOL      0.063605
    163 N14         6.2200    1.9010    3.5050 n         1 MOL     -0.235978
    164 C55         7.5700    2.1810    3.9000 c3        1 MOL     -0.385419
    165 H73         7.8860    3.1290    3.4620 h1        1 MOL      0.137095
    166 H74         7.6250    2.2470    4.9870 h1        1 MOL      0.137095
    167 H75         8.2250    1.3840    3.5500 h1        1 MOL      0.137095
    168 H76         5.9930    1.7320    2.5350 hn        1 MOL      0.271142
    169 Ca1        -0.0260   -0.2950   -1.4100 Ca        1 MOL      1.740683
    170 O24        -2.0430   -1.9220   -1.0130 oh        1 MOL     -0.860430
    171 H77        -2.6810   -1.3270   -1.4050 ho        1 MOL      0.431869
    172 H78        -2.3450   -2.7950   -1.2820 ho        1 MOL      0.431869
    173 O25        -2.0460    1.2860   -0.5500 oh        1 MOL     -0.860430
    174 H79        -2.8860    0.9000   -0.8080 ho        1 MOL      0.431869
    175 H80        -2.2860    2.1470   -0.2020 ho        1 MOL      0.431869
    176 O26         0.1010    1.9160   -2.6870 oh        1 MOL     -0.860430
    177 H81         0.0410    1.9010   -3.6400 ho        1 MOL      0.431869
    178 H82        -0.2390    2.7740   -2.4270 ho        1 MOL      0.431869
@<TRIPOS>BOND
     1    1    2 1   
     2    1    4 1   
     3    1    5 1   
     4    1    6 1   
     5    2    3 2   
     6    2    7 1   
     7    7    8 1   
     8    7   15 1   
     9    8    9 1   
    10    8   11 1   
    11    8   16 1   
    12    9   10 2   
    13    9   19 1   
    14   11   12 1   
    15   11   17 1   
    16   11   18 1   
    17   12   13 1   
    18   12   14 1   
    19   19   20 1   
    20   19   24 1   
    21   20   21 1   
    22   20   23 1   
    23   20   25 1   
    24   21   22 2   
    25   21   29 1   
    26   23   26 1   
    27   23   27 1   
    28   23   28 1   
    29   29   30 1   
    30   29   37 1   
    31   30   31 1   
    32   30   33 1   
    33   30   38 1   
    34   31   32 2   
    35   31   41 1   
    36   33   34 1   
    37   33   39 1   
    38   33   40 1   
    39   34   35 1   
    40   34   36 1   
    41   41   42 1   
    42   41   45 1   
    43   42   43 1   
    44   42   46 1   
    45   42   47 1   
    46   43   44 2   
    47   43   48 1   
    48   48   49 1   
    49   48   56 1   
    50   49   50 1   
    51   49   52 1   
    52   49   57 1   
    53   50   51 2   
    54   50   62 1   
    55   52   53 1   
    56   52   58 1   
    57   52   59 1   
    58   53   54 1   
    59   53   55 2   
    60   54   60 1   
    61   54   61 1   
    62   62   63 1   
    63   62   66 1   
    64   63   64 1   
    65   63   67 1   
    66   63   68 1   
    67   64   65 2   
    68   64   69 1   
    69   69   70 1   
    70   69   76 1   
    71   70   71 1   
    72   70   73 1   
    73   70   77 1   
    74   71   72 2   
    75   71   83 1   
    76   73   74 1   
    77   73   75 1   
    78   73   78 1   
    79   74   80 1   
    80   74   81 1   
    81   74   82 1   
    82   75   79 1   
    83   83   84 1   
    84   83   91 1   
    85   84   85 1   
    86   84   87 1   
    87   84   92 1   
    88   85   86 2   
    89   85  102 1   
    90   87   88 1   
    91   87   89 1   
    92   87   93 1   
    93   88   90 1   
    94   88   94 1   
    95   88   95 1   
    96   89   96 1   
    97   89   97 1   
    98   89   98 1   
    99   90   99 1   
   100   90  100 1   
   101   90  101 1   
   102  102  103 1   
   103  102  110 1   
   104  103  104 1   
   105  103  106 1   
   106  103  111 1   
   107  104  105 2   
   108  104  114 1   
   109  106  107 1   
   110  106  112 1   
   111  106  113 1   
   112  107  108 1   
   113  107  109 1   
   114  114  115 1   
   115  114  125 1   
   116  115  116 1   
   117  115  118 1   
   118  115  126 1   
   119  116  117 2   
   120  116  134 1   
   121  118  119 1   
   122  118  127 1   
   123  118  128 1   
   124  119  120 ar  
   125  119  121 ar  
   126  120  122 ar  
   127  120  129 1   
   128  121  123 ar  
   129  121  130 1   
   130  122  124 ar  
   131  122  131 1   
   132  123  124 ar  
   133  123  132 1   
   134  124  133 1   
   135  134  135 1   
   136  134  140 1   
   137  135  136 1   
   138  135  138 1   
   139  135  141 1   
   140  136  137 2   
   141  136  148 1   
   142  138  139 1   
   143  138  142 1   
   144  138  143 1   
   145  139  140 1   
   146  139  144 1   
   147  139  145 1   
   148  140  146 1   
   149  140  147 1   
   150  148  149 1   
   151  148  157 1   
   152  149  150 1   
   153  149  152 1   
   154  149  158 1   
   155  150  151 2   
   156  150  163 1   
   157  152  153 1   
   158  152  159 1   
   159  152  160 1   
   160  153  154 1   
   161  153  161 1   
   162  153  162 1   
   163  154  155 1   
   164  154  156 1   
   165  163  164 1   
   166  163  168 1   
   167  164  165 1   
   168  164  166 1   
   169  164  167 1   
   170  170  171 1   
   171  170  172 1   
   172  173  174 1   
   173  173  175 1   
   174  176  177 1   
   175  176  178 1   
@<TRIPOS>SUBSTRUCTURE
     1 MOL         1 TEMP              0 ****  ****    0 ROOT
