@<TRIPOS>MOLECULE
MOL
  192   187     1     0     0
SMALL
resp


@<TRIPOS>ATOM
      1 C1         -6.6220   -2.2960    4.9660 c3        1 MOL     -0.339331
      2 C2         -5.8190   -1.8750    3.7600 c         1 MOL      0.715507
      3 O1         -5.3590   -2.7210    2.9800 o         1 MOL     -0.580878
      4 H1         -5.9980   -2.2360    5.8570 hc        1 MOL      0.081687
      5 H2         -7.4810   -1.6350    5.0800 hc        1 MOL      0.081687
      6 H3         -6.9660   -3.3220    4.8330 hc        1 MOL      0.081687
      7 N1         -5.7580   -0.5680    3.6150 n         1 MOL     -0.529916
      8 C3         -5.3010   -0.0000    2.3540 c3        1 MOL      0.368266
      9 C4         -3.7850   -0.1030    2.0790 c         1 MOL      0.020382
     10 O2         -3.3660    0.4650    1.0800 o         1 MOL     -0.270305
     11 C5         -5.5170    1.5070    2.4190 c3        1 MOL     -0.209529
     12 C6         -6.8730    1.9430    2.9770 c         1 MOL      0.743776
     13 O3         -7.0930    1.7160    4.1770 o         1 MOL     -0.704551
     14 O4         -7.6650    2.5590    2.2680 o         1 MOL     -0.704551
     15 H4         -5.9820    0.0310    4.4090 hn        1 MOL      0.275745
     16 H5         -5.8170   -0.4890    1.5260 h1        1 MOL      0.055406
     17 H6         -5.2760    2.0340    1.4990 hc        1 MOL     -0.019869
     18 H7         -4.7070    1.7830    3.0760 hc        1 MOL     -0.019869
     19 N2         -2.8720   -0.7790    2.7880 n         1 MOL     -0.165402
     20 C7         -1.3980   -0.7250    2.5960 c3        1 MOL      0.302449
     21 C8         -0.7520   -2.0910    2.3030 c         1 MOL      0.165198
     22 O5         -1.2630   -3.0980    2.8550 o         1 MOL     -0.473809
     23 C9         -0.8420   -0.0800    3.9210 c3        1 MOL     -0.100569
     24 C10        -0.8650    1.4420    3.8740 c3        1 MOL     -0.008480
     25 C11        -0.6290    1.9950    5.3030 c3        1 MOL     -0.181569
     26 C12        -0.2300    3.5050    5.2760 c3        1 MOL      0.199213
     27 N3          0.3220    3.9440    6.6090 n4        1 MOL     -0.442880
     28 H8         -3.2290   -1.2830    3.5940 hn        1 MOL      0.195368
     29 H9         -1.2090   -0.0010    1.8090 h1        1 MOL     -0.096704
     30 H10         0.1930   -0.4360    4.0290 hc        1 MOL      0.042000
     31 H11        -1.3710   -0.3990    4.8250 hc        1 MOL      0.042000
     32 H12        -1.8180    1.7850    3.4910 hc        1 MOL      0.064720
     33 H13        -0.0640    1.8610    3.2650 hc        1 MOL      0.064720
     34 H14         0.1640    1.4050    5.7780 hc        1 MOL      0.062659
     35 H15        -1.5020    1.9120    5.9490 hc        1 MOL      0.062659
     36 H16        -1.0230    4.1620    4.9410 hx        1 MOL      0.055025
     37 H17         0.5600    3.7340    4.5530 hx        1 MOL      0.055025
     38 H18         1.0120    4.6630    6.4930 hn        1 MOL      0.341079
     39 H19        -0.4160    4.3370    7.1710 hn        1 MOL      0.341079
     40 H20         0.7380    3.1640    7.1120 hn        1 MOL      0.341079
     41 N4          0.3050   -2.1350    1.4680 n         1 MOL      0.055746
     42 C13         0.8660   -1.0880    0.5520 c3        1 MOL     -0.012585
     43 C14         1.5570    0.1310    1.2290 c         1 MOL      0.434142
     44 O6          1.2870    1.2760    0.9390 o         1 MOL     -0.483475
     45 C15        -0.1650   -0.7900   -0.5720 c3        1 MOL     -0.384453
     46 C16        -0.3040   -1.9520   -1.6500 c         1 MOL      0.595766
     47 O7          0.3860   -3.0000   -1.4580 o         1 MOL     -0.618641
     48 O8         -1.0690   -1.7320   -2.6100 o         1 MOL     -0.618641
     49 H21         0.5560   -3.0770    1.2170 hn        1 MOL      0.059071
     50 H22         1.6670   -1.5410   -0.0370 h1        1 MOL     -0.048349
     51 H23         0.1660    0.1300   -1.0650 hc        1 MOL      0.162952
     52 H24        -1.1990   -0.6630   -0.2700 hc        1 MOL      0.162952
     53 N5          2.5090   -0.0680    2.1060 n         1 MOL     -0.418821
     54 C17         3.3200   -1.3070    2.3180 c3        1 MOL      0.003561
     55 C18         4.5410   -1.1260    3.3210 c         1 MOL      0.540078
     56 O9          4.7350   -0.0750    3.9350 o         1 MOL     -0.533600
     57 H25         2.8600    0.8150    2.4600 hn        1 MOL      0.266915
     58 H26         3.7730   -1.5400    1.3620 h1        1 MOL      0.057960
     59 H27         2.6780   -2.1210    2.6540 h1        1 MOL      0.057960
     60 N6          5.4680   -2.0680    3.5260 n         1 MOL     -0.541936
     61 C19         5.6350   -3.2350    2.5760 c3        1 MOL      0.104255
     62 C20         6.2150   -2.7410    1.1820 c         1 MOL      0.472314
     63 O10         6.9500   -1.7680    1.0990 o         1 MOL     -0.454669
     64 C21         6.5910   -4.2700    3.2040 c3        1 MOL     -0.132624
     65 C22         7.9820   -3.6760    3.4820 c         1 MOL      0.719276
     66 O11         8.9310   -4.4810    3.4100 o         1 MOL     -0.646542
     67 O12         8.1840   -2.5450    3.9860 o         1 MOL     -0.646542
     68 H28         6.2390   -1.8400    4.1420 hn        1 MOL      0.349931
     69 H29         4.6930   -3.7480    2.3800 h1        1 MOL     -0.001043
     70 H30         6.7910   -5.1520    2.5970 hc        1 MOL      0.020228
     71 H31         6.1710   -4.6660    4.1330 hc        1 MOL      0.020228
     72 N7          5.9040   -3.4400    0.1130 n         1 MOL     -0.353696
     73 C23         6.4450   -3.2610   -1.1930 c3        1 MOL     -0.080614
     74 C24         5.8900   -2.1310   -2.0160 c         1 MOL      0.469694
     75 O13         6.0140   -2.0820   -3.2460 o         1 MOL     -0.551701
     76 H32         5.2680   -4.2250    0.1740 hn        1 MOL      0.192486
     77 H33         6.5540   -4.1570   -1.8070 h1        1 MOL      0.111903
     78 H34         7.5020   -3.0030   -1.1230 h1        1 MOL      0.111903
     79 N8          5.3110   -1.0460   -1.4100 n         1 MOL     -0.498775
     80 C25         4.7500    0.1500   -2.0350 c3        1 MOL      0.405452
     81 C26         4.9090    1.2780   -1.0530 c         1 MOL      0.308825
     82 O14         4.7470    1.0320    0.1280 o         1 MOL     -0.379935
     83 C27         3.2280    0.0840   -2.3100 c3        1 MOL      0.095096
     84 C28         2.7730   -1.0060   -3.2600 c3        1 MOL     -0.278788
     85 O15         2.7590    1.2670   -2.9770 oh        1 MOL     -0.598925
     86 H35         5.3560   -0.9260   -0.4120 hn        1 MOL      0.225647
     87 H36         5.3240    0.3880   -2.9350 h1        1 MOL      0.030031
     88 H37         2.6920   -0.0350   -1.3670 h1        1 MOL      0.119194
     89 H38         1.9490    1.5390   -2.5550 ho        1 MOL      0.370414
     90 H39         2.8240   -1.9220   -2.6820 hc        1 MOL      0.096880
     91 H40         1.7240   -0.8250   -3.4880 hc        1 MOL      0.096880
     92 H41         3.4670   -1.0470   -4.0930 hc        1 MOL      0.096880
     93 N9          5.3140    2.4510   -1.4680 n         1 MOL     -0.394911
     94 C29         5.4840    3.5740   -0.5920 c3        1 MOL     -0.060880
     95 C30         4.1620    4.4450   -0.5630 c         1 MOL      0.361115
     96 O16         4.1660    5.5380    0.0320 o         1 MOL     -0.538294
     97 C31         6.6840    4.3550   -1.0840 c3        1 MOL      0.178341
     98 C32         6.4450    5.1240   -2.4430 c3        1 MOL      0.042950
     99 C33         7.9410    3.4990   -1.0880 c3        1 MOL     -0.116622
    100 C34         7.7580    5.7460   -3.0620 c3        1 MOL     -0.089179
    101 H42         5.5050    2.7190   -2.4320 hn        1 MOL      0.268953
    102 H43         5.6360    3.1830    0.4090 h1        1 MOL      0.116710
    103 H44         6.8890    5.1620   -0.3770 hc        1 MOL     -0.006204
    104 H45         5.7090    5.9060   -2.2850 hc        1 MOL     -0.008295
    105 H46         5.9690    4.4500   -3.1550 hc        1 MOL     -0.008295
    106 H47         8.8820    4.0440   -1.1550 hc        1 MOL      0.031270
    107 H48         8.0600    3.1010   -0.0800 hc        1 MOL      0.031270
    108 H49         7.9850    2.6910   -1.8150 hc        1 MOL      0.031270
    109 H50         8.3370    6.2770   -2.3150 hc        1 MOL      0.018791
    110 H51         8.3640    4.9780   -3.5290 hc        1 MOL      0.018791
    111 H52         7.5710    6.4450   -3.8800 hc        1 MOL      0.018791
    112 N10         3.0410    3.8690   -0.9680 n         1 MOL      0.028906
    113 C35         1.7070    4.5510   -1.0360 c3        1 MOL     -0.020235
    114 C36         0.6300    3.5590   -1.0260 c         1 MOL      0.312227
    115 O17         0.7020    2.5790   -1.7190 o         1 MOL     -0.315064
    116 C37         1.4240    5.5150   -2.2390 c3        1 MOL      0.323973
    117 C38         1.9140    4.8900   -3.5290 c3        1 MOL     -0.037806
    118 O18         2.1100    6.7890   -2.0350 oh        1 MOL     -0.602937
    119 H53         3.0870    2.8750   -1.1440 hn        1 MOL     -0.009886
    120 H54         1.4540    5.1320   -0.1410 h1        1 MOL      0.013881
    121 H55         0.3600    5.6800   -2.3680 h1        1 MOL      0.001278
    122 H56         1.8890    7.1290   -1.1640 ho        1 MOL      0.360139
    123 H57         1.0220    4.3800   -3.8950 hc        1 MOL      0.012107
    124 H58         2.2680    5.6510   -4.2200 hc        1 MOL      0.012107
    125 H59         2.6960    4.1460   -3.3610 hc        1 MOL      0.012107
    126 N11        -0.4470    3.9170   -0.3220 n         1 MOL     -0.421098
    127 C39        -1.6410    3.1580   -0.2480 c3        1 MOL      0.090015
    128 C40        -2.1650    2.7830   -1.6040 c         1 MOL      0.215810
    129 O19        -1.8610    3.4770   -2.6140 o         1 MOL     -0.462438
    130 C41        -2.7210    3.8240    0.6830 c3        1 MOL      0.254817
    131 C42        -3.1130    5.2640    0.1630 c3        1 MOL     -0.297109
    132 O20        -2.1140    3.9930    1.9470 oh        1 MOL     -0.664476
    133 H60        -0.2920    4.6850    0.3080 hn        1 MOL      0.319303
    134 H61        -1.2950    2.2270    0.2040 h1        1 MOL      0.133427
    135 H62        -3.6180    3.2060    0.7420 h1        1 MOL      0.098299
    136 H63        -2.8430    4.2440    2.5290 ho        1 MOL      0.418575
    137 H64        -3.7910    5.7510    0.8670 hc        1 MOL      0.075282
    138 H65        -2.2700    5.9540    0.0380 hc        1 MOL      0.075282
    139 H66        -3.5590    5.1120   -0.8170 hc        1 MOL      0.075282
    140 N12        -2.9690    1.7250   -1.6980 n         1 MOL     -0.020167
    141 C43        -3.7010    1.2370   -2.8820 c3        1 MOL      0.014785
    142 C44        -3.9170   -0.2700   -2.8910 c         1 MOL      0.691102
    143 O21        -4.0720   -0.7860   -4.0070 o         1 MOL     -0.599122
    144 C45        -5.0530    2.0070   -2.8450 c3        1 MOL     -0.256811
    145 C46        -6.0690    1.6710   -1.7130 c3        1 MOL     -0.048125
    146 C47        -6.9220    2.8670   -1.3830 c3        1 MOL      0.139901
    147 C48        -7.7280    3.4990   -2.5210 c3        1 MOL      0.108636
    148 N13        -8.6000    4.5370   -2.0510 n4        1 MOL     -0.291821
    149 H67        -3.1520    1.1390   -0.8860 hn        1 MOL     -0.129281
    150 H68        -3.1060    1.5630   -3.7320 h1        1 MOL      0.085181
    151 H69        -5.5000    1.8540   -3.8260 hc        1 MOL      0.069969
    152 H70        -4.7640    3.0590   -2.8130 hc        1 MOL      0.069969
    153 H71        -5.5860    1.3460   -0.7930 hc        1 MOL      0.066439
    154 H72        -6.6730    0.7980   -1.9660 hc        1 MOL      0.066439
    155 H73        -6.2110    3.6050   -0.9910 hc        1 MOL     -0.042409
    156 H74        -7.5220    2.5910   -0.5190 hc        1 MOL     -0.042409
    157 H75        -8.2680    2.7060   -3.0480 hx        1 MOL      0.039243
    158 H76        -7.0520    3.9880   -3.2220 hx        1 MOL      0.039243
    159 H77        -8.0570    5.0470   -1.3710 hn        1 MOL      0.306114
    160 H78        -8.9540    5.2050   -2.7280 hn        1 MOL      0.306114
    161 H79        -9.3660    4.1490   -1.5270 hn        1 MOL      0.306114
    162 N14        -3.9520   -0.8710   -1.6890 n         1 MOL     -0.296392
    163 C49        -4.1840   -2.2670   -1.4620 c3        1 MOL     -0.700478
    164 C50        -5.7000   -2.6470   -1.5880 c         1 MOL      0.513615
    165 O22        -6.5370   -2.1080   -0.8010 o         1 MOL     -0.543094
    166 C51        -3.6050   -2.7150   -0.1370 c3        1 MOL      1.075427
    167 C52        -3.7450   -4.2380    0.0610 c3        1 MOL     -0.985560
    168 C53        -3.1880   -5.1300   -1.0330 c         1 MOL      0.975994
    169 O23        -3.9220   -5.3800   -1.9900 o         1 MOL     -0.779225
    170 O24        -2.0090   -5.4510   -0.9610 o         1 MOL     -0.779225
    171 H80        -3.8920   -0.3150   -0.8440 hn        1 MOL      0.278805
    172 H81        -3.6090   -2.8050   -2.2100 h1        1 MOL      0.226674
    173 H82        -4.0870   -2.1570    0.6700 hc        1 MOL     -0.209917
    174 H83        -2.5340   -2.5270   -0.1030 hc        1 MOL     -0.209917
    175 H84        -4.7900   -4.5320    0.1660 hc        1 MOL      0.225508
    176 H85        -3.2750   -4.3590    1.0310 hc        1 MOL      0.225508
    177 N15        -6.0450   -3.4140   -2.6280 n         1 MOL     -0.171526
    178 C54        -7.3900   -3.8610   -2.9300 c3        1 MOL     -0.235343
    179 H86        -7.6680   -3.5250   -3.9290 h1        1 MOL      0.099505
    180 H87        -7.4300   -4.9490   -2.8880 h1        1 MOL      0.099505
    181 H88        -8.0840   -3.4430   -2.2010 h1        1 MOL      0.099505
    182 H89        -5.2370   -3.7610   -3.1200 hn        1 MOL      0.298987
    183 Ca1         0.4900   -5.5880   -1.7910 Ca        1 MOL      1.630716
    184 O25         2.3440   -4.9950   -3.6090 oh        1 MOL     -0.913043
    185 H90         2.1520   -5.5050   -4.3940 ho        1 MOL      0.447191
    186 H91         3.2850   -5.0850   -3.4870 ho        1 MOL      0.447191
    187 O26        -1.0200   -4.5170   -3.7210 oh        1 MOL     -0.913043
    188 H92        -1.9030   -4.5970   -4.0770 ho        1 MOL      0.447191
    189 H93        -0.9310   -3.5800   -3.5290 ho        1 MOL      0.447191
    190 O27        -0.2100   -7.4380   -3.4720 oh        1 MOL     -0.913043
    191 H94         0.4320   -7.8150   -4.0720 ho        1 MOL      0.447191
    192 H95        -1.0570   -7.7110   -3.8160 ho        1 MOL      0.447191
@<TRIPOS>BOND
     1    1    2 1   
     2    1    4 1   
     3    1    5 1   
     4    1    6 1   
     5    2    3 2   
     6    2    7 1   
     7    7    8 1   
     8    7   15 1   
     9    8    9 1   
    10    8   11 1   
    11    8   16 1   
    12    9   10 2   
    13    9   19 1   
    14   11   12 1   
    15   11   17 1   
    16   11   18 1   
    17   12   13 1   
    18   12   14 1   
    19   19   20 1   
    20   19   28 1   
    21   20   21 1   
    22   20   23 1   
    23   20   29 1   
    24   21   22 2   
    25   21   41 1   
    26   23   24 1   
    27   23   30 1   
    28   23   31 1   
    29   24   25 1   
    30   24   32 1   
    31   24   33 1   
    32   25   26 1   
    33   25   34 1   
    34   25   35 1   
    35   26   27 1   
    36   26   36 1   
    37   26   37 1   
    38   27   38 1   
    39   27   39 1   
    40   27   40 1   
    41   41   42 1   
    42   41   49 1   
    43   42   43 1   
    44   42   45 1   
    45   42   50 1   
    46   43   44 2   
    47   43   53 1   
    48   45   46 1   
    49   45   51 1   
    50   45   52 1   
    51   46   47 1   
    52   46   48 1   
    53   53   54 1   
    54   53   57 1   
    55   54   55 1   
    56   54   58 1   
    57   54   59 1   
    58   55   56 2   
    59   55   60 1   
    60   60   61 1   
    61   60   68 1   
    62   61   62 1   
    63   61   64 1   
    64   61   69 1   
    65   62   63 2   
    66   62   72 1   
    67   64   65 1   
    68   64   70 1   
    69   64   71 1   
    70   65   66 1   
    71   65   67 1   
    72   72   73 1   
    73   72   76 1   
    74   73   74 1   
    75   73   77 1   
    76   73   78 1   
    77   74   75 2   
    78   74   79 1   
    79   79   80 1   
    80   79   86 1   
    81   80   81 1   
    82   80   83 1   
    83   80   87 1   
    84   81   82 2   
    85   81   93 1   
    86   83   84 1   
    87   83   85 1   
    88   83   88 1   
    89   84   90 1   
    90   84   91 1   
    91   84   92 1   
    92   85   89 1   
    93   93   94 1   
    94   93  101 1   
    95   94   95 1   
    96   94   97 1   
    97   94  102 1   
    98   95   96 2   
    99   95  112 1   
   100   97   98 1   
   101   97   99 1   
   102   97  103 1   
   103   98  100 1   
   104   98  104 1   
   105   98  105 1   
   106   99  106 1   
   107   99  107 1   
   108   99  108 1   
   109  100  109 1   
   110  100  110 1   
   111  100  111 1   
   112  112  113 1   
   113  112  119 1   
   114  113  114 1   
   115  113  116 1   
   116  113  120 1   
   117  114  115 2   
   118  114  126 1   
   119  116  117 1   
   120  116  118 1   
   121  116  121 1   
   122  117  123 1   
   123  117  124 1   
   124  117  125 1   
   125  118  122 1   
   126  126  127 1   
   127  126  133 1   
   128  127  128 1   
   129  127  130 1   
   130  127  134 1   
   131  128  129 2   
   132  128  140 1   
   133  130  131 1   
   134  130  132 1   
   135  130  135 1   
   136  131  137 1   
   137  131  138 1   
   138  131  139 1   
   139  132  136 1   
   140  140  141 1   
   141  140  149 1   
   142  141  142 1   
   143  141  144 1   
   144  141  150 1   
   145  142  143 2   
   146  142  162 1   
   147  144  145 1   
   148  144  151 1   
   149  144  152 1   
   150  145  146 1   
   151  145  153 1   
   152  145  154 1   
   153  146  147 1   
   154  146  155 1   
   155  146  156 1   
   156  147  148 1   
   157  147  157 1   
   158  147  158 1   
   159  148  159 1   
   160  148  160 1   
   161  148  161 1   
   162  162  163 1   
   163  162  171 1   
   164  163  164 1   
   165  163  166 1   
   166  163  172 1   
   167  164  165 2   
   168  164  177 1   
   169  166  167 1   
   170  166  173 1   
   171  166  174 1   
   172  167  168 1   
   173  167  175 1   
   174  167  176 1   
   175  168  169 1   
   176  168  170 1   
   177  177  178 1   
   178  177  182 1   
   179  178  179 1   
   180  178  180 1   
   181  178  181 1   
   182  184  185 1   
   183  184  186 1   
   184  187  188 1   
   185  187  189 1   
   186  190  191 1   
   187  190  192 1   
@<TRIPOS>SUBSTRUCTURE
     1 MOL         1 TEMP              0 ****  ****    0 ROOT
