@<TRIPOS>MOLECULE
MOL
  194   186     1     0     0
SMALL
resp


@<TRIPOS>ATOM
      1 C1          1.4480    0.4700    3.6360 c3        1 MOL     -0.368205
      2 C2          2.5310    0.3600    2.5560 c         1 MOL      0.810995
      3 O1          2.4270    0.9040    1.4370 o         1 MOL     -0.717256
      4 H1          0.5730    0.9730    3.2230 hc        1 MOL      0.101343
      5 H2          1.1670   -0.5280    3.9720 hc        1 MOL      0.101343
      6 H3          1.8320    1.0440    4.4800 hc        1 MOL      0.101343
      7 N1          3.5830   -0.3440    2.8420 n         1 MOL     -0.666192
      8 C3          4.8220   -0.3110    2.0220 c3        1 MOL      0.164236
      9 C4          5.5720   -1.6120    1.7250 c         1 MOL      0.345158
     10 O2          6.7940   -1.5920    1.4020 o         1 MOL     -0.423621
     11 C5          5.8290    0.6620    2.5500 c3        1 MOL     -0.125229
     12 C6          6.3850    0.3670    3.9190 c         1 MOL      0.653032
     13 O3          7.4100    0.9920    4.2340 o         1 MOL     -0.695914
     14 O4          5.9590   -0.5380    4.6780 o         1 MOL     -0.695914
     15 H4          3.6020   -0.8100    3.7290 hn        1 MOL      0.299180
     16 H5          4.5840    0.0810    1.0370 h1        1 MOL      0.092561
     17 H6          5.2130    1.5390    2.7610 hc        1 MOL      0.058103
     18 H7          6.6300    0.9140    1.8510 hc        1 MOL      0.058103
     19 N2          4.8120   -2.7260    1.8650 n         1 MOL     -0.388725
     20 C7          5.2540   -4.0790    1.4260 c3        1 MOL     -0.007616
     21 C8          5.8400   -4.1490    0.0070 c         1 MOL      0.462444
     22 O5          6.6270   -5.0610   -0.2900 o         1 MOL     -0.547759
     23 C9          6.3160   -4.5560    2.4650 c3        1 MOL      0.022641
     24 C10         5.6980   -4.8990    3.8420 c3        1 MOL     -0.019730
     25 C11         6.6930   -5.5300    4.8490 c3        1 MOL     -0.155179
     26 C12         7.8260   -4.5330    5.2120 c3        1 MOL      0.061695
     27 N3          8.9750   -5.1300    5.9480 n4        1 MOL     -0.247988
     28 H8          3.8220   -2.6080    2.0370 hn        1 MOL      0.289567
     29 H9          4.3880   -4.7420    1.4060 h1        1 MOL      0.093715
     30 H10         7.1680   -3.8680    2.4600 hc        1 MOL      0.024360
     31 H11         6.7300   -5.4950    2.0990 hc        1 MOL      0.024360
     32 H12         4.9330   -5.6690    3.7600 hc        1 MOL      0.033601
     33 H13         5.1940   -4.0720    4.3300 hc        1 MOL      0.033601
     34 H14         7.0270   -6.4330    4.3460 hc        1 MOL      0.055366
     35 H15         6.2220   -5.7730    5.8040 hc        1 MOL      0.055366
     36 H16         7.4660   -3.6680    5.7680 hx        1 MOL      0.107881
     37 H17         8.1860   -4.1750    4.2520 hx        1 MOL      0.107881
     38 H18         8.8140   -5.5870    6.8300 hn        1 MOL      0.265317
     39 H19         9.3940   -5.8520    5.3680 hn        1 MOL      0.265317
     40 H20         9.7660   -4.5260    6.1070 hn        1 MOL      0.265317
     41 N4          5.4170   -3.2470   -0.8110 n         1 MOL     -0.170984
     42 C13         5.8070   -2.9950   -2.2150 c3        1 MOL      0.009462
     43 C14         5.8330   -1.4680   -2.4670 c         1 MOL      0.599389
     44 O6          5.1190   -0.7370   -1.7540 o         1 MOL     -0.569417
     45 C15         4.8390   -3.7900   -3.1380 c3        1 MOL     -0.364632
     46 C16         3.4370   -3.1860   -2.9950 c         1 MOL      0.753017
     47 O7          2.9070   -2.3220   -3.7370 o         1 MOL     -0.763123
     48 O8          2.6880   -3.5930   -2.0360 o         1 MOL     -0.763123
     49 H21         4.7870   -2.5630   -0.4210 hn        1 MOL      0.119602
     50 H22         6.8020   -3.3660   -2.4180 h1        1 MOL      0.086394
     51 H23         4.7200   -4.8070   -2.7690 hc        1 MOL      0.121988
     52 H24         5.1790   -3.6340   -4.1580 hc        1 MOL      0.121988
     53 N5          6.5280   -0.9580   -3.4740 n         1 MOL     -0.498356
     54 C17         7.0410    0.4720   -3.5550 c3        1 MOL      0.007575
     55 C18         8.0190    0.8660   -2.3570 c         1 MOL      0.568025
     56 O9          8.9820    0.1180   -2.1180 o         1 MOL     -0.525401
     57 H25         6.9350   -1.6750   -4.0590 hn        1 MOL      0.324595
     58 H26         6.2230    1.1940   -3.5360 h1        1 MOL      0.071312
     59 H27         7.5590    0.5830   -4.4980 h1        1 MOL      0.071312
     60 N6          7.8890    2.0780   -1.7620 n         1 MOL     -0.547179
     61 C19         6.7050    3.0360   -1.7330 c3        1 MOL      0.302530
     62 C20         6.5620    3.4600   -0.2560 c         1 MOL      0.441809
     63 O10         7.5920    3.8020    0.4120 o         1 MOL     -0.517518
     64 C21         6.9470    4.2020   -2.6690 c3        1 MOL     -0.394610
     65 C22         7.1410    3.8480   -4.1230 c         1 MOL      0.705235
     66 N7          6.0500    3.8650   -4.8630 n         1 MOL     -0.764223
     67 O11         8.1980    3.3310   -4.5660 o         1 MOL     -0.549235
     68 H28         8.6760    2.2940   -1.1600 hn        1 MOL      0.339505
     69 H29         5.7950    2.5190   -2.0200 h1        1 MOL      0.054031
     70 H30         7.8230    4.7190   -2.2660 hc        1 MOL      0.113706
     71 H31         6.0860    4.8590   -2.6700 hc        1 MOL      0.113706
     72 H32         5.1610    3.9510   -4.4070 hn        1 MOL      0.345568
     73 H33         5.9880    3.2990   -5.6950 hn        1 MOL      0.345568
     74 N8          5.4000    3.5480    0.2880 n         1 MOL     -0.422340
     75 C23         4.1560    3.2820   -0.4380 c3        1 MOL      0.051202
     76 C24         2.8490    3.9580    0.1420 c         1 MOL      0.731323
     77 O12         2.9110    4.9860    0.8030 o         1 MOL     -0.543490
     78 H34         5.3290    3.8410    1.2500 hn        1 MOL      0.314485
     79 H35         4.0490    2.2040   -0.3460 h1        1 MOL     -0.012756
     80 H36         4.1890    3.5410   -1.4960 h1        1 MOL     -0.012756
     81 N9          1.5940    3.4760   -0.2440 n         1 MOL     -0.702806
     82 C25         0.3080    3.9860    0.2500 c3        1 MOL      0.292734
     83 C26        -0.8690    2.8810    0.2410 c         1 MOL      0.581006
     84 O13        -0.8610    1.9820   -0.6020 o         1 MOL     -0.571724
     85 C27        -0.0790    5.1850   -0.6040 c3        1 MOL     -0.227600
     86 C28        -1.0020    6.1150    0.2420 ca        1 MOL      0.001003
     87 C29        -2.3900    6.2090    0.0240 ca        1 MOL     -0.115783
     88 C30        -0.4930    6.8910    1.3840 ca        1 MOL     -0.115783
     89 C31        -3.2790    6.9520    0.8320 ca        1 MOL     -0.320477
     90 C32        -1.3680    7.7280    2.1050 ca        1 MOL     -0.320477
     91 C33        -2.7710    7.6430    1.9060 ca        1 MOL      0.423144
     92 O14        -3.5360    8.3320    2.8230 oh        1 MOL     -0.564939
     93 H37         1.5430    2.6110   -0.7750 hn        1 MOL      0.297008
     94 H38         0.4940    4.3420    1.2600 h1        1 MOL      0.038064
     95 H39        -0.5980    4.8710   -1.5150 hc        1 MOL      0.099578
     96 H40         0.7610    5.8120   -0.8860 hc        1 MOL      0.099578
     97 H41        -2.8160    5.7440   -0.8470 ha        1 MOL      0.140570
     98 H42         0.5280    6.9020    1.7120 ha        1 MOL      0.140570
     99 H43        -4.3150    7.0600    0.5460 ha        1 MOL      0.151950
    100 H44        -1.0460    8.3000    2.9630 ha        1 MOL      0.151950
    101 H45        -3.0720    8.9810    3.3530 ho        1 MOL      0.401452
    102 N10        -1.8460    3.1660    1.1120 n         1 MOL     -0.458138
    103 C34        -3.0990    2.3830    1.2270 c3        1 MOL      0.076110
    104 C35        -4.0850    2.6530    0.0140 c         1 MOL      0.352635
    105 O15        -3.8370    3.6030   -0.7370 o         1 MOL     -0.481007
    106 C36        -3.7010    2.6590    2.5850 c3        1 MOL      0.263990
    107 C37        -4.1060    4.1380    2.8410 c3        1 MOL     -0.215532
    108 C38        -4.9230    1.6950    2.8110 c3        1 MOL     -0.446328
    109 C39        -4.8580    4.5210    4.1780 c3        1 MOL     -0.197829
    110 H46        -1.7240    3.8150    1.8750 hn        1 MOL      0.223059
    111 H47        -2.8930    1.3180    1.2900 h1        1 MOL      0.030389
    112 H48        -3.0080    2.2950    3.3490 hc        1 MOL      0.000186
    113 H49        -4.7320    4.4800    2.0260 hc        1 MOL      0.120236
    114 H50        -3.1850    4.7240    2.8460 hc        1 MOL      0.120236
    115 H51        -5.1010    1.5370    3.8720 hc        1 MOL      0.121371
    116 H52        -5.7380    2.1620    2.2520 hc        1 MOL      0.121371
    117 H53        -4.7550    0.6740    2.4750 hc        1 MOL      0.121371
    118 H54        -4.2750    4.1520    5.0170 hc        1 MOL      0.063778
    119 H55        -5.0260    5.5870    4.3440 hc        1 MOL      0.063778
    120 H56        -5.8620    4.1310    4.2890 hc        1 MOL      0.063778
    121 N11        -5.1080    1.8520   -0.2120 n         1 MOL     -0.193637
    122 C40        -6.0120    1.8830   -1.3400 c3        1 MOL      0.120042
    123 C41        -6.1880    0.4790   -1.9760 c         1 MOL      0.397467
    124 O16        -5.8450   -0.5010   -1.3320 o         1 MOL     -0.401055
    125 C42        -7.4320    2.3340   -0.8570 c3        1 MOL     -0.132655
    126 O17        -8.0620    1.4470    0.0610 oh        1 MOL     -0.450490
    127 H57        -5.0330    1.0220    0.3580 hn        1 MOL      0.136714
    128 H58        -5.7650    2.6220   -2.1010 h1        1 MOL      0.051811
    129 H59        -8.0190    2.4740   -1.7620 h1        1 MOL      0.091429
    130 H60        -7.3280    3.2490   -0.2820 h1        1 MOL      0.091429
    131 H61        -8.9980    1.6250    0.0850 ho        1 MOL      0.392242
    132 N12        -6.8320    0.3850   -3.1610 n         1 MOL     -0.417850
    133 C43        -7.1090   -0.8700   -3.8390 c3        1 MOL      0.078515
    134 C44        -7.9690   -1.8740   -2.9720 c         1 MOL      0.479526
    135 O18        -7.6010   -3.0740   -2.8860 o         1 MOL     -0.452678
    136 C45        -5.7320   -1.3950   -4.3320 c3        1 MOL     -0.223726
    137 H62        -7.2070    1.1710   -3.6650 hn        1 MOL      0.291524
    138 H63        -7.6000   -0.7060   -4.8030 h1        1 MOL      0.081052
    139 H64        -5.8310   -2.2720   -4.9670 hc        1 MOL      0.067396
    140 H65        -5.1830   -0.5920   -4.8340 hc        1 MOL      0.067396
    141 H66        -5.0680   -1.7110   -3.5230 hc        1 MOL      0.067396
    142 N13        -9.0420   -1.3150   -2.3930 n         1 MOL     -0.644943
    143 C46        -9.9740   -2.1040   -1.5760 c3        1 MOL      0.449099
    144 C47        -9.4690   -2.6840   -0.2940 c         1 MOL      0.257683
    145 O19       -10.0880   -3.5170    0.2990 o         1 MOL     -0.460265
    146 C48       -10.7890   -3.1150   -2.4710 c3        1 MOL     -0.243596
    147 H67        -9.1700   -0.3200   -2.5040 hn        1 MOL      0.308992
    148 H68       -10.8020   -1.4600   -1.2640 h1        1 MOL     -0.018461
    149 H69       -11.3240   -3.8050   -1.8180 hc        1 MOL      0.068691
    150 H70       -11.4510   -2.5260   -3.1160 hc        1 MOL      0.068691
    151 H71       -10.1210   -3.7010   -3.0990 hc        1 MOL      0.068691
    152 N14        -8.2790   -2.2570    0.1400 n         1 MOL     -0.154256
    153 C49        -7.6360   -2.6790    1.4180 c3        1 MOL     -0.126469
    154 C50        -8.3410   -2.2170    2.6910 c         1 MOL      0.380712
    155 O20        -8.4330   -3.0100    3.6280 o         1 MOL     -0.451867
    156 C51        -6.1730   -2.2470    1.4640 c3        1 MOL      0.250996
    157 C52        -5.1910   -2.8250    2.5010 c3        1 MOL     -0.560612
    158 C53        -5.1670   -4.3750    2.5680 c         1 MOL      0.797899
    159 O21        -5.4230   -5.0310    1.5920 o         1 MOL     -0.703093
    160 O22        -4.9180   -4.9560    3.6660 o         1 MOL     -0.703093
    161 H72        -7.7210   -1.6340   -0.4320 hn        1 MOL      0.079494
    162 H73        -7.6720   -3.7710    1.4080 h1        1 MOL      0.193135
    163 H74        -6.2020   -1.1620    1.5560 hc        1 MOL     -0.010660
    164 H75        -5.6930   -2.3750    0.4950 hc        1 MOL     -0.010660
    165 H76        -5.5140   -2.5360    3.5050 hc        1 MOL      0.101096
    166 H77        -4.1690   -2.5340    2.2310 hc        1 MOL      0.101096
    167 N15        -8.9330   -1.0030    2.6160 n         1 MOL     -0.112676
    168 C54        -9.8820   -0.5790    3.6330 c3        1 MOL     -0.182087
    169 H78       -10.6770    0.0020    3.1670 h1        1 MOL      0.082341
    170 H79       -10.3110   -1.4560    4.1190 h1        1 MOL      0.082341
    171 H80        -9.3710    0.0350    4.3750 h1        1 MOL      0.082341
    172 H81        -8.6600   -0.4670    1.8020 hn        1 MOL      0.072486
    173 Ca1         0.5180   -2.3480   -2.5430 Ca        1 MOL      1.814852
    174 O23        -0.3910   -4.9680   -2.9810 oh        1 MOL     -0.868729
    175 H82        -0.0320   -5.8470   -3.1090 ho        1 MOL      0.432157
    176 H83        -1.3430   -5.0970   -2.9880 ho        1 MOL      0.432157
    177 O24        -0.3790   -3.1680   -0.2020 oh        1 MOL     -0.868729
    178 H84        -1.3120   -3.3490   -0.0760 ho        1 MOL      0.432157
    179 H85        -0.0070   -3.1850    0.6790 ho        1 MOL      0.432157
    180 O25        -0.9900   -0.5200   -1.2380 oh        1 MOL     -0.868729
    181 H86        -0.7720    0.3420   -0.8780 ho        1 MOL      0.432157
    182 H87        -1.8850   -0.6850   -0.9350 ho        1 MOL      0.432157
    183 O26         2.3370   -1.0600   -0.7780 oh        1 MOL     -0.868729
    184 H88         2.2780   -0.3790   -0.1050 ho        1 MOL      0.432157
    185 H89         3.2450   -1.0300   -1.0710 ho        1 MOL      0.432157
    186 O27         0.4590    0.0010   -3.7660 oh        1 MOL     -0.868729
    187 H90        -0.1770    0.5860   -3.3620 ho        1 MOL      0.432157
    188 H91         0.7400    0.4680   -4.5480 ho        1 MOL      0.432157
    189 O28        -0.0760   -2.9840   -5.2140 oh        1 MOL     -0.868729
    190 H92        -0.1500   -2.1790   -5.7300 ho        1 MOL      0.432157
    191 H93         0.3440   -3.6070   -5.7990 ho        1 MOL      0.432157
    192 O29        -2.2510   -2.6980   -3.0230 oh        1 MOL     -0.868729
    193 H94        -3.0400   -2.8690   -2.5080 ho        1 MOL      0.432157
    194 H95        -2.4130   -3.1320   -3.8550 ho        1 MOL      0.432157
@<TRIPOS>BOND
     1    1    2 1   
     2    1    4 1   
     3    1    5 1   
     4    1    6 1   
     5    2    3 2   
     6    2    7 1   
     7    7    8 1   
     8    7   15 1   
     9    8    9 1   
    10    8   11 1   
    11    8   16 1   
    12    9   10 2   
    13    9   19 1   
    14   11   12 1   
    15   11   17 1   
    16   11   18 1   
    17   12   13 1   
    18   12   14 1   
    19   19   20 1   
    20   19   28 1   
    21   20   21 1   
    22   20   23 1   
    23   20   29 1   
    24   21   22 2   
    25   21   41 1   
    26   23   24 1   
    27   23   30 1   
    28   23   31 1   
    29   24   25 1   
    30   24   32 1   
    31   24   33 1   
    32   25   26 1   
    33   25   34 1   
    34   25   35 1   
    35   26   27 1   
    36   26   36 1   
    37   26   37 1   
    38   27   38 1   
    39   27   39 1   
    40   27   40 1   
    41   41   42 1   
    42   41   49 1   
    43   42   43 1   
    44   42   45 1   
    45   42   50 1   
    46   43   44 2   
    47   43   53 1   
    48   45   46 1   
    49   45   51 1   
    50   45   52 1   
    51   46   47 1   
    52   46   48 1   
    53   53   54 1   
    54   53   57 1   
    55   54   55 1   
    56   54   58 1   
    57   54   59 1   
    58   55   56 2   
    59   55   60 1   
    60   60   61 1   
    61   60   68 1   
    62   61   62 1   
    63   61   64 1   
    64   61   69 1   
    65   62   63 2   
    66   62   74 1   
    67   64   65 1   
    68   64   70 1   
    69   64   71 1   
    70   65   66 1   
    71   65   67 2   
    72   66   72 1   
    73   66   73 1   
    74   74   75 1   
    75   74   78 1   
    76   75   76 1   
    77   75   79 1   
    78   75   80 1   
    79   76   77 2   
    80   76   81 1   
    81   81   82 1   
    82   81   93 1   
    83   82   83 1   
    84   82   85 1   
    85   82   94 1   
    86   83   84 2   
    87   83  102 1   
    88   85   86 1   
    89   85   95 1   
    90   85   96 1   
    91   86   87 ar  
    92   86   88 ar  
    93   87   89 ar  
    94   87   97 1   
    95   88   90 ar  
    96   88   98 1   
    97   89   91 ar  
    98   89   99 1   
    99   90   91 ar  
   100   90  100 1   
   101   91   92 1   
   102   92  101 1   
   103  102  103 1   
   104  102  110 1   
   105  103  104 1   
   106  103  106 1   
   107  103  111 1   
   108  104  105 2   
   109  104  121 1   
   110  106  107 1   
   111  106  108 1   
   112  106  112 1   
   113  107  109 1   
   114  107  113 1   
   115  107  114 1   
   116  108  115 1   
   117  108  116 1   
   118  108  117 1   
   119  109  118 1   
   120  109  119 1   
   121  109  120 1   
   122  121  122 1   
   123  121  127 1   
   124  122  123 1   
   125  122  125 1   
   126  122  128 1   
   127  123  124 2   
   128  123  132 1   
   129  125  126 1   
   130  125  129 1   
   131  125  130 1   
   132  126  131 1   
   133  132  133 1   
   134  132  137 1   
   135  133  134 1   
   136  133  136 1   
   137  133  138 1   
   138  134  135 2   
   139  134  142 1   
   140  136  139 1   
   141  136  140 1   
   142  136  141 1   
   143  142  143 1   
   144  142  147 1   
   145  143  144 1   
   146  143  146 1   
   147  143  148 1   
   148  144  145 2   
   149  144  152 1   
   150  146  149 1   
   151  146  150 1   
   152  146  151 1   
   153  152  153 1   
   154  152  161 1   
   155  153  154 1   
   156  153  156 1   
   157  153  162 1   
   158  154  155 2   
   159  154  167 1   
   160  156  157 1   
   161  156  163 1   
   162  156  164 1   
   163  157  158 1   
   164  157  165 1   
   165  157  166 1   
   166  158  159 1   
   167  158  160 1   
   168  167  168 1   
   169  167  172 1   
   170  168  169 1   
   171  168  170 1   
   172  168  171 1   
   173  174  175 1   
   174  174  176 1   
   175  177  178 1   
   176  177  179 1   
   177  180  181 1   
   178  180  182 1   
   179  183  184 1   
   180  183  185 1   
   181  186  187 1   
   182  186  188 1   
   183  189  190 1   
   184  189  191 1   
   185  192  193 1   
   186  192  194 1   
@<TRIPOS>SUBSTRUCTURE
     1 MOL         1 TEMP              0 ****  ****    0 ROOT
