@<TRIPOS>MOLECULE
MOL
  175   173     1     0     0
SMALL
resp


@<TRIPOS>ATOM
      1 C1         -7.1060    7.5870    2.2350 c3        1 MOL     -0.305561
      2 C2         -7.6950    6.8760    1.0780 c         1 MOL      0.664006
      3 O1         -7.5730    7.3460   -0.0900 o         1 MOL     -0.598390
      4 H1         -6.1890    7.0840    2.5420 hc        1 MOL      0.068344
      5 H2         -6.8800    8.6160    1.9530 hc        1 MOL      0.068344
      6 H3         -7.8150    7.5840    3.0620 hc        1 MOL      0.068344
      7 N1         -8.3560    5.7730    1.3230 n         1 MOL     -0.483186
      8 C3         -9.0100    5.0690    0.2920 c3        1 MOL      0.187053
      9 C4         -8.0770    4.3940   -0.6770 c         1 MOL      0.486904
     10 O2         -8.5020    4.0940   -1.7820 o         1 MOL     -0.512273
     11 C5         -9.9930    4.1530    1.0000 c3        1 MOL     -0.255088
     12 C6        -10.7360    3.2350    0.0420 c         1 MOL      0.718770
     13 O3        -10.5240    2.0020   -0.0290 o         1 MOL     -0.723797
     14 O4        -11.5690    3.8690   -0.6610 o         1 MOL     -0.723797
     15 H4         -8.4780    5.4020    2.2570 hn        1 MOL      0.283449
     16 H5         -9.5690    5.7070   -0.3970 h1        1 MOL      0.053116
     17 H6        -10.7190    4.8010    1.4900 hc        1 MOL      0.011803
     18 H7         -9.3880    3.5900    1.7090 hc        1 MOL      0.011803
     19 N2         -6.9040    3.9710   -0.2580 n         1 MOL     -0.408349
     20 C7         -6.0040    3.1120   -0.9970 c3        1 MOL      0.086399
     21 C8         -5.0240    2.4730   -0.0080 c         1 MOL      0.603083
     22 O5         -4.5600    3.0020    1.0080 o         1 MOL     -0.568976
     23 C9         -5.2740    3.8950   -1.9760 c3        1 MOL     -0.193004
     24 H8         -6.5940    4.2470    0.6590 hn        1 MOL      0.213656
     25 H9         -6.6790    2.3850   -1.4450 h1        1 MOL      0.114161
     26 H10        -4.7870    3.1630   -2.6240 hc        1 MOL      0.062467
     27 H11        -5.9910    4.3480   -2.6520 hc        1 MOL      0.062467
     28 H12        -4.5370    4.5820   -1.5580 hc        1 MOL      0.062467
     29 N3         -4.7150    1.2100   -0.1440 n         1 MOL     -0.468962
     30 C10        -5.1980    0.2590   -1.1390 c3        1 MOL      0.037639
     31 C11        -5.3990   -1.1370   -0.4750 c         1 MOL      0.462297
     32 O6         -4.6660   -1.5660    0.4420 o         1 MOL     -0.493181
     33 C12        -4.2410    0.1730   -2.3290 c3        1 MOL     -0.261793
     34 C13        -2.8760   -0.3290   -1.9760 c         1 MOL      0.760958
     35 O7         -2.4600   -1.4710   -2.4140 o         1 MOL     -0.745109
     36 O8         -2.1110    0.3540   -1.2310 o         1 MOL     -0.745109
     37 H13        -3.9510    0.9150    0.4490 hn        1 MOL      0.301902
     38 H14        -6.2080    0.4810   -1.4800 h1        1 MOL      0.050014
     39 H15        -3.9470    1.1430   -2.7230 hc        1 MOL      0.069129
     40 H16        -4.6810   -0.3870   -3.1480 hc        1 MOL      0.069129
     41 N4         -6.5020   -1.7760   -0.9410 n         1 MOL     -0.385179
     42 C14        -6.9140   -3.1300   -0.5200 c3        1 MOL      0.040417
     43 C15        -6.6960   -4.2160   -1.5550 c         1 MOL      0.477193
     44 O9         -7.5940   -4.5540   -2.3570 o         1 MOL     -0.549502
     45 H17        -7.1190   -1.3590   -1.6240 hn        1 MOL      0.337560
     46 H18        -7.9940   -3.1580   -0.3730 h1        1 MOL      0.054446
     47 H19        -6.3550   -3.4370    0.3710 h1        1 MOL      0.054446
     48 N5         -5.5100   -4.8460   -1.7690 n         1 MOL     -0.423943
     49 C16        -4.2210   -4.5410   -1.1960 c3        1 MOL     -0.009675
     50 C17        -4.0470   -5.1690    0.2520 c         1 MOL      0.570944
     51 O10        -4.2170   -6.3820    0.4390 o         1 MOL     -0.569891
     52 C18        -3.0900   -4.8960   -2.1630 c3        1 MOL     -0.028920
     53 C19        -1.7060   -4.4830   -1.7070 c         1 MOL      0.470673
     54 N6         -0.8040   -4.7490   -2.4750 n         1 MOL     -0.615247
     55 O11        -1.5100   -3.9020   -0.6590 o         1 MOL     -0.570576
     56 H20        -5.6050   -5.6880   -2.3080 hn        1 MOL      0.289509
     57 H21        -4.0620   -3.4750   -1.1070 h1        1 MOL      0.106254
     58 H22        -3.2980   -4.4700   -3.1440 hc        1 MOL      0.030046
     59 H23        -2.9720   -5.9660   -2.2520 hc        1 MOL      0.030046
     60 H24        -0.9950   -5.2400   -3.3330 hn        1 MOL      0.332809
     61 H25         0.0970   -4.3390   -2.2680 hn        1 MOL      0.332809
     62 N7         -3.7090   -4.3270    1.2300 n         1 MOL     -0.250308
     63 C20        -3.2510   -4.8540    2.5710 c3        1 MOL     -0.237139
     64 C21        -1.8210   -5.3050    2.7410 c         1 MOL      0.568179
     65 O12        -1.5590   -6.1860    3.6010 o         1 MOL     -0.581905
     66 H26        -3.5480   -3.3470    1.0290 hn        1 MOL      0.212627
     67 H27        -3.9750   -5.5980    2.8920 h1        1 MOL      0.104074
     68 H28        -3.2660   -4.0160    3.2760 h1        1 MOL      0.104074
     69 N8         -0.8450   -4.7630    2.0120 n         1 MOL     -0.199871
     70 C22         0.6270   -5.0180    2.1990 c3        1 MOL     -0.359581
     71 C23         1.4390   -3.7060    1.9000 c         1 MOL      0.481945
     72 O13         0.9290   -2.8480    1.2100 o         1 MOL     -0.449758
     73 C24         1.1510   -6.0800    1.2180 c3        1 MOL      0.463568
     74 C25         0.3820   -7.3670    1.4420 c3        1 MOL     -0.648184
     75 O14         0.9760   -5.7630   -0.1820 oh        1 MOL     -0.530356
     76 H29        -1.0330   -4.1300    1.2630 hn        1 MOL      0.279450
     77 H30         0.8050   -5.3700    3.2140 h1        1 MOL      0.134425
     78 H31         2.2040   -6.2940    1.3650 h1        1 MOL     -0.011525
     79 H32         1.4530   -4.9550   -0.3780 ho        1 MOL      0.338423
     80 H33         0.9150   -8.2180    0.9980 hc        1 MOL      0.174245
     81 H34         0.2330   -7.3630    2.5140 hc        1 MOL      0.174245
     82 H35        -0.6440   -7.2970    1.0820 hc        1 MOL      0.174245
     83 N9          2.5320   -3.5690    2.6400 n         1 MOL     -0.331490
     84 C26         3.4420   -2.5330    2.2920 c3        1 MOL      0.009352
     85 C27         4.3530   -2.9260    1.0620 c         1 MOL      0.223522
     86 O15         5.1900   -3.8120    1.1590 o         1 MOL     -0.530758
     87 C28         4.2930   -2.1860    3.5530 c3        1 MOL      0.188668
     88 C29         5.3360   -1.0700    3.1940 c3        1 MOL      0.043747
     89 C30         3.3620   -1.6400    4.6710 c3        1 MOL     -0.351907
     90 C31         6.2080   -0.5260    4.3650 c3        1 MOL     -0.208468
     91 H36         2.7230   -4.2500    3.3620 hn        1 MOL      0.278932
     92 H37         2.9420   -1.6070    1.9800 h1        1 MOL      0.019020
     93 H38         4.7800   -3.1060    3.8860 hc        1 MOL     -0.005145
     94 H39         4.8720   -0.2000    2.7130 hc        1 MOL      0.016947
     95 H40         5.9730   -1.4920    2.4120 hc        1 MOL      0.016947
     96 H41         2.5200   -1.1010    4.2440 hc        1 MOL      0.080455
     97 H42         2.9770   -2.5160    5.1980 hc        1 MOL      0.080455
     98 H43         3.9120   -1.0680    5.4200 hc        1 MOL      0.080455
     99 H44         6.7530   -1.3170    4.8670 hc        1 MOL      0.044579
    100 H45         6.9800   -0.0010    3.8020 hc        1 MOL      0.044579
    101 H46         5.6940    0.1810    5.0180 hc        1 MOL      0.044579
    102 N10         4.0260   -2.3190   -0.1230 n         1 MOL      0.123617
    103 C32         4.7330   -2.5550   -1.3590 c3        1 MOL      0.051458
    104 C33         5.8760   -1.5340   -1.6680 c         1 MOL      0.359354
    105 O16         6.5700   -1.6200   -2.7240 o         1 MOL     -0.537919
    106 C34         3.7010   -2.6240   -2.4350 c3        1 MOL     -0.075658
    107 C35         2.4510   -3.4780   -2.2780 c         1 MOL      0.508906
    108 O17         2.3860   -4.6260   -2.7750 o         1 MOL     -0.616465
    109 O18         1.4900   -3.0130   -1.6310 o         1 MOL     -0.616465
    110 H47         3.2750   -1.6420   -0.0800 hn        1 MOL      0.068844
    111 H48         5.3050   -3.4750   -1.2720 h1        1 MOL      0.074539
    112 H49         4.1860   -3.0760   -3.2970 hc        1 MOL      0.015762
    113 H50         3.3750   -1.6020   -2.5940 hc        1 MOL      0.015762
    114 N11         5.8930   -0.4380   -0.9620 n         1 MOL     -0.249222
    115 C36         6.6380    0.8550   -1.1830 c3        1 MOL      0.141123
    116 C37         6.0750    2.0800   -0.4930 c         1 MOL      0.319320
    117 O19         5.8960    2.0950    0.7060 o         1 MOL     -0.491191
    118 C38         8.1070    0.6660   -0.6950 c3        1 MOL     -0.178035
    119 C39         9.1620    1.6760   -1.0900 ca        1 MOL      0.135666
    120 C40         9.3360    2.9180   -0.4090 ca        1 MOL     -0.198658
    121 C41         9.9190    1.3740   -2.2300 ca        1 MOL     -0.198658
    122 C42        10.3780    3.7810   -0.8720 ca        1 MOL     -0.068659
    123 C43        10.9390    2.2690   -2.6410 ca        1 MOL     -0.068659
    124 C44        11.2090    3.4650   -1.9770 ca        1 MOL     -0.178591
    125 H51         5.3280   -0.4200   -0.1220 hn        1 MOL      0.130425
    126 H52         6.8030    0.9640   -2.2490 h1        1 MOL      0.031253
    127 H53         8.4250   -0.3140   -1.0650 hc        1 MOL      0.080673
    128 H54         8.1880    0.5970    0.3930 hc        1 MOL      0.080673
    129 H55         8.7270    3.0780    0.4640 ha        1 MOL      0.142151
    130 H56         9.6590    0.5190   -2.8420 ha        1 MOL      0.142151
    131 H57        10.5670    4.6340   -0.2380 ha        1 MOL      0.093066
    132 H58        11.5970    1.9970   -3.4550 ha        1 MOL      0.093066
    133 H59        12.0740    4.1090   -2.0710 ha        1 MOL      0.124681
    134 N12         5.9390    3.1940   -1.2110 n         1 MOL      0.012502
    135 C45         5.8930    4.5800   -0.6220 c3        1 MOL     -0.066576
    136 C46         4.6810    5.0250    0.1730 c         1 MOL      0.556388
    137 O20         4.6410    6.1320    0.6420 o         1 MOL     -0.557611
    138 C47         6.1380    5.5100   -1.8420 c3        1 MOL     -0.050784
    139 C48         5.7280    4.8190   -3.0530 c3        1 MOL     -0.021348
    140 C49         6.0210    3.3060   -2.6520 c3        1 MOL     -0.212516
    141 H60         6.7940    4.6450    0.0020 h1        1 MOL      0.060638
    142 H61         5.5700    6.4290   -1.6590 hc        1 MOL      0.039827
    143 H62         7.1890    5.8030   -1.8540 hc        1 MOL      0.039827
    144 H63         4.6790    5.0290   -3.2520 hc        1 MOL      0.040963
    145 H64         6.2830    4.9930   -3.9760 hc        1 MOL      0.040963
    146 H65         5.2440    2.7590   -3.1820 h1        1 MOL      0.100500
    147 H66         7.0220    3.0680   -3.0310 h1        1 MOL      0.100500
    148 N13         3.7120    4.1200    0.3020 n         1 MOL     -0.266251
    149 C50         2.3700    4.3370    0.9120 c3        1 MOL     -0.184852
    150 C51         2.4090    4.7950    2.3900 c         1 MOL      0.550847
    151 O21         1.4500    5.4130    2.8620 o         1 MOL     -0.545575
    152 C52         1.5780    3.0350    0.6390 c3        1 MOL     -0.109809
    153 C53         2.1980    1.7940    1.3390 c3        1 MOL     -0.048928
    154 C54         1.5310    0.5190    0.8200 c         1 MOL      0.623980
    155 O22         2.1820   -0.1310   -0.0730 o         1 MOL     -0.668560
    156 O23         0.2640    0.3660    0.9530 o         1 MOL     -0.668560
    157 H67         3.8740    3.2830   -0.2480 hn        1 MOL      0.194708
    158 H68         1.7980    5.0900    0.3540 h1        1 MOL      0.120032
    159 H69         1.6540    2.7860   -0.4180 hc        1 MOL      0.099749
    160 H70         0.5340    3.1450    0.9460 hc        1 MOL      0.099749
    161 H71         2.0360    1.7650    2.4180 hc        1 MOL      0.009582
    162 H72         3.2820    1.7490    1.3060 hc        1 MOL      0.009582
    163 N14         3.4840    4.5410    3.0690 n         1 MOL     -0.179621
    164 C55         3.6390    5.0540    4.4630 c3        1 MOL     -0.223275
    165 H73         4.6880    5.0020    4.7550 h1        1 MOL      0.100243
    166 H74         3.3010    6.0900    4.5090 h1        1 MOL      0.100243
    167 H75         3.0410    4.4470    5.1430 h1        1 MOL      0.100243
    168 H76         4.2570    4.1680    2.5350 hn        1 MOL      0.199089
    169 Ca1        -0.2360   -1.3730   -0.8560 Ca        1 MOL      1.689047
    170 O24         0.4250   -0.0500   -3.0330 oh        1 MOL     -0.919924
    171 H77         1.2520    0.0560   -3.5140 ho        1 MOL      0.437479
    172 H78        -0.2440    0.2690   -3.6380 ho        1 MOL      0.437479
    173 O25        -2.2350   -1.5440    1.4130 oh        1 MOL     -0.919924
    174 H79        -3.0950   -1.4040    0.9960 ho        1 MOL      0.437479
    175 H80        -2.2590   -1.0010    2.1960 ho        1 MOL      0.437479
@<TRIPOS>BOND
     1    1    2 1   
     2    1    4 1   
     3    1    5 1   
     4    1    6 1   
     5    2    3 2   
     6    2    7 1   
     7    7    8 1   
     8    7   15 1   
     9    8    9 1   
    10    8   11 1   
    11    8   16 1   
    12    9   10 2   
    13    9   19 1   
    14   11   12 1   
    15   11   17 1   
    16   11   18 1   
    17   12   13 1   
    18   12   14 1   
    19   19   20 1   
    20   19   24 1   
    21   20   21 1   
    22   20   23 1   
    23   20   25 1   
    24   21   22 2   
    25   21   29 1   
    26   23   26 1   
    27   23   27 1   
    28   23   28 1   
    29   29   30 1   
    30   29   37 1   
    31   30   31 1   
    32   30   33 1   
    33   30   38 1   
    34   31   32 2   
    35   31   41 1   
    36   33   34 1   
    37   33   39 1   
    38   33   40 1   
    39   34   35 1   
    40   34   36 1   
    41   41   42 1   
    42   41   45 1   
    43   42   43 1   
    44   42   46 1   
    45   42   47 1   
    46   43   44 2   
    47   43   48 1   
    48   48   49 1   
    49   48   56 1   
    50   49   50 1   
    51   49   52 1   
    52   49   57 1   
    53   50   51 2   
    54   50   62 1   
    55   52   53 1   
    56   52   58 1   
    57   52   59 1   
    58   53   54 1   
    59   53   55 2   
    60   54   60 1   
    61   54   61 1   
    62   62   63 1   
    63   62   66 1   
    64   63   64 1   
    65   63   67 1   
    66   63   68 1   
    67   64   65 2   
    68   64   69 1   
    69   69   70 1   
    70   69   76 1   
    71   70   71 1   
    72   70   73 1   
    73   70   77 1   
    74   71   72 2   
    75   71   83 1   
    76   73   74 1   
    77   73   75 1   
    78   73   78 1   
    79   74   80 1   
    80   74   81 1   
    81   74   82 1   
    82   75   79 1   
    83   83   84 1   
    84   83   91 1   
    85   84   85 1   
    86   84   87 1   
    87   84   92 1   
    88   85   86 2   
    89   85  102 1   
    90   87   88 1   
    91   87   89 1   
    92   87   93 1   
    93   88   90 1   
    94   88   94 1   
    95   88   95 1   
    96   89   96 1   
    97   89   97 1   
    98   89   98 1   
    99   90   99 1   
   100   90  100 1   
   101   90  101 1   
   102  102  103 1   
   103  102  110 1   
   104  103  104 1   
   105  103  106 1   
   106  103  111 1   
   107  104  105 2   
   108  104  114 1   
   109  106  107 1   
   110  106  112 1   
   111  106  113 1   
   112  107  108 1   
   113  107  109 1   
   114  114  115 1   
   115  114  125 1   
   116  115  116 1   
   117  115  118 1   
   118  115  126 1   
   119  116  117 2   
   120  116  134 1   
   121  118  119 1   
   122  118  127 1   
   123  118  128 1   
   124  119  120 ar  
   125  119  121 ar  
   126  120  122 ar  
   127  120  129 1   
   128  121  123 ar  
   129  121  130 1   
   130  122  124 ar  
   131  122  131 1   
   132  123  124 ar  
   133  123  132 1   
   134  124  133 1   
   135  134  135 1   
   136  134  140 1   
   137  135  136 1   
   138  135  138 1   
   139  135  141 1   
   140  136  137 2   
   141  136  148 1   
   142  138  139 1   
   143  138  142 1   
   144  138  143 1   
   145  139  140 1   
   146  139  144 1   
   147  139  145 1   
   148  140  146 1   
   149  140  147 1   
   150  148  149 1   
   151  148  157 1   
   152  149  150 1   
   153  149  152 1   
   154  149  158 1   
   155  150  151 2   
   156  150  163 1   
   157  152  153 1   
   158  152  159 1   
   159  152  160 1   
   160  153  154 1   
   161  153  161 1   
   162  153  162 1   
   163  154  155 1   
   164  154  156 1   
   165  163  164 1   
   166  163  168 1   
   167  164  165 1   
   168  164  166 1   
   169  164  167 1   
   170  170  171 1   
   171  170  172 1   
   172  173  174 1   
   173  173  175 1   
@<TRIPOS>SUBSTRUCTURE
     1 MOL         1 TEMP              0 ****  ****    0 ROOT
