@<TRIPOS>MOLECULE
MOL
  175   173     1     0     0
SMALL
resp


@<TRIPOS>ATOM
      1 C1         -7.8660    7.5160    2.1890 c3        1 MOL     -0.327511
      2 C2         -8.4790    6.7030    1.0050 c         1 MOL      0.585192
      3 O1         -8.4660    7.2170   -0.1620 o         1 MOL     -0.566919
      4 H1         -8.5930    7.5850    2.9980 hc        1 MOL      0.082186
      5 H2         -6.9690    7.0130    2.5490 hc        1 MOL      0.082186
      6 H3         -7.6070    8.5190    1.8470 hc        1 MOL      0.082186
      7 N1         -9.0030    5.4840    1.1820 n         1 MOL     -0.393232
      8 C3         -9.5480    4.5930    0.1200 c3        1 MOL      0.067355
      9 C4         -8.4600    3.9840   -0.7910 c         1 MOL      0.574298
     10 O2         -8.6370    3.7660   -1.9900 o         1 MOL     -0.527108
     11 C5        -10.4550    3.5830    0.7850 c3        1 MOL     -0.395410
     12 C6        -11.1450    2.6140   -0.2060 c         1 MOL      0.829123
     13 O3        -10.5520    1.6460   -0.6420 o         1 MOL     -0.745848
     14 O4        -12.3330    2.8180   -0.4790 o         1 MOL     -0.745848
     15 H4         -9.2300    5.2310    2.1390 hn        1 MOL      0.257406
     16 H5        -10.1890    5.1630   -0.5560 h1        1 MOL      0.083852
     17 H6        -11.1220    4.1390    1.4460 hc        1 MOL      0.057091
     18 H7         -9.9670    2.9570    1.5390 hc        1 MOL      0.057091
     19 N2         -7.2830    3.7250   -0.2060 n         1 MOL     -0.477841
     20 C7         -6.1430    3.1530   -0.9600 c3        1 MOL      0.213197
     21 C8         -5.1510    2.4320   -0.0240 c         1 MOL      0.496304
     22 O5         -4.6360    3.0220    0.9210 o         1 MOL     -0.536538
     23 C9         -5.3630    4.2260   -1.7260 c3        1 MOL     -0.268433
     24 H8         -7.1650    3.8470    0.7970 hn        1 MOL      0.229111
     25 H9         -6.4860    2.3480   -1.6140 h1        1 MOL      0.048520
     26 H10        -4.8000    4.8870   -1.0730 hc        1 MOL      0.081176
     27 H11        -4.6490    3.6360   -2.3030 hc        1 MOL      0.081176
     28 H12        -6.0870    4.8200   -2.2780 hc        1 MOL      0.081176
     29 N3         -4.7810    1.1540   -0.2600 n         1 MOL     -0.374233
     30 C10        -5.1470    0.2350   -1.3270 c3        1 MOL     -0.021628
     31 C11        -5.2660   -1.1680   -0.7690 c         1 MOL      0.518078
     32 O6         -4.4480   -1.4980    0.0790 o         1 MOL     -0.540052
     33 C12        -4.1840    0.2730   -2.5150 c3        1 MOL     -0.215948
     34 C13        -2.8470   -0.2890   -2.0920 c         1 MOL      0.823972
     35 O7         -1.9780    0.3660   -1.5970 o         1 MOL     -0.773215
     36 O8         -2.6030   -1.4850   -2.1020 o         1 MOL     -0.773215
     37 H13        -4.2260    0.8630    0.5240 hn        1 MOL      0.266146
     38 H14        -6.1270    0.5150   -1.7060 h1        1 MOL      0.090325
     39 H15        -4.2260    1.3400   -2.7510 hc        1 MOL      0.048362
     40 H16        -4.5250   -0.3270   -3.3580 hc        1 MOL      0.048362
     41 N4         -6.1520   -1.9830   -1.2480 n         1 MOL     -0.532024
     42 C14        -6.3990   -3.3160   -0.6420 c3        1 MOL      0.339157
     43 C15        -6.2900   -4.4320   -1.6110 c         1 MOL      0.495426
     44 O9         -7.3510   -4.7870   -2.1560 o         1 MOL     -0.570817
     45 H17        -6.6790   -1.6590   -2.0490 hn        1 MOL      0.344645
     46 H18        -7.4310   -3.4040   -0.3140 h1        1 MOL     -0.028326
     47 H19        -5.7930   -3.5580    0.2290 h1        1 MOL     -0.028326
     48 N5         -5.1350   -4.9610   -1.8270 n         1 MOL     -0.502220
     49 C16        -3.8590   -4.7280   -1.2120 c3        1 MOL      0.208663
     50 C17        -3.6460   -5.3970    0.1540 c         1 MOL      0.517135
     51 O10        -3.9230   -6.5720    0.3440 o         1 MOL     -0.559568
     52 C18        -2.7310   -5.0990   -2.1360 c3        1 MOL     -0.325574
     53 C19        -1.4030   -4.5200   -1.8220 c         1 MOL      0.728102
     54 N6         -0.4950   -4.6470   -2.7130 n         1 MOL     -0.703566
     55 O11        -1.0720   -4.0660   -0.7330 o         1 MOL     -0.730527
     56 H20        -5.1610   -5.5480   -2.6480 hn        1 MOL      0.304402
     57 H21        -3.6190   -3.6810   -1.0110 h1        1 MOL      0.074697
     58 H22        -2.9090   -4.5810   -3.0710 hc        1 MOL      0.086839
     59 H23        -2.7770   -6.1830   -2.1190 hc        1 MOL      0.086839
     60 H24        -0.6690   -5.2770   -3.4770 hn        1 MOL      0.335852
     61 H25         0.3470   -4.1300   -2.5530 hn        1 MOL      0.335852
     62 N7         -3.2780   -4.6760    1.2520 n         1 MOL     -0.195208
     63 C20        -3.0160   -5.2980    2.5470 c3        1 MOL     -0.330587
     64 C21        -1.5250   -5.4900    2.8480 c         1 MOL      0.585637
     65 O12        -1.1670   -6.0410    3.8930 o         1 MOL     -0.605610
     66 H26        -3.2840   -3.6630    1.1980 hn        1 MOL      0.230475
     67 H27        -3.4630   -6.2920    2.5540 h1        1 MOL      0.141845
     68 H28        -3.5460   -4.6770    3.2640 h1        1 MOL      0.141845
     69 N8         -0.6290   -4.9840    2.0090 n         1 MOL     -0.233502
     70 C22         0.8840   -4.9920    2.1090 c3        1 MOL     -0.159352
     71 C23         1.3670   -3.5330    1.9880 c         1 MOL      0.335689
     72 O13         0.7750   -2.6650    1.3230 o         1 MOL     -0.387688
     73 C24         1.4360   -6.0650    1.1440 c3        1 MOL      0.277590
     74 C25         2.9540   -6.0030    0.8820 c3        1 MOL     -0.221003
     75 O14         1.1920   -7.3390    1.6440 oh        1 MOL     -0.617376
     76 H29        -1.0160   -4.5010    1.2080 hn        1 MOL      0.207962
     77 H30         1.1130   -5.4090    3.0890 h1        1 MOL      0.090176
     78 H31         0.9460   -5.9170    0.1880 h1        1 MOL      0.123990
     79 H32         1.3210   -7.3390    2.5970 ho        1 MOL      0.395407
     80 H33         3.6160   -6.0400    1.7500 hc        1 MOL      0.057317
     81 H34         3.2380   -6.8090    0.1990 hc        1 MOL      0.057317
     82 H35         3.1270   -5.0470    0.3660 hc        1 MOL      0.057317
     83 N9          2.5580   -3.2940    2.4900 n         1 MOL     -0.241549
     84 C26         3.3110   -2.0490    2.2810 c3        1 MOL      0.030984
     85 C27         4.2470   -2.2940    1.1200 c         1 MOL      0.295990
     86 O15         5.3590   -2.7770    1.3420 o         1 MOL     -0.571729
     87 C28         4.0190   -1.5380    3.5360 c3        1 MOL      0.398359
     88 C29         4.7100   -0.1670    3.3130 c3        1 MOL      0.325466
     89 C30         3.2390   -1.5040    4.8010 c3        1 MOL     -0.414346
     90 C31         6.0480   -0.2280    4.0730 c3        1 MOL     -0.193969
     91 H36         3.0220   -3.9590    3.0990 hn        1 MOL      0.244885
     92 H37         2.5910   -1.3030    1.9390 h1        1 MOL      0.020504
     93 H38         4.8410   -2.2410    3.5790 hc        1 MOL     -0.095438
     94 H39         4.0210    0.6070    3.6760 hc        1 MOL     -0.148441
     95 H40         4.9470    0.0460    2.2720 hc        1 MOL     -0.148441
     96 H41         3.8870   -1.1820    5.6230 hc        1 MOL      0.080432
     97 H42         2.3820   -0.8700    4.5950 hc        1 MOL      0.080432
     98 H43         2.9310   -2.5310    5.0040 hc        1 MOL      0.080432
     99 H44         5.9390   -0.4760    5.1320 hc        1 MOL      0.023283
    100 H45         6.6970   -0.9550    3.5920 hc        1 MOL      0.023283
    101 H46         6.4550    0.7770    3.8980 hc        1 MOL      0.023283
    102 N10         3.8570   -1.8940   -0.0540 n         1 MOL     -0.111687
    103 C32         4.6600   -2.2620   -1.2220 c3        1 MOL      0.038141
    104 C33         5.8770   -1.3090   -1.4870 c         1 MOL      0.467039
    105 O16         6.5110   -1.3980   -2.5440 o         1 MOL     -0.513655
    106 C34         3.7880   -2.2660   -2.4480 c3        1 MOL     -0.101675
    107 C35         2.5870   -3.2230   -2.3510 c         1 MOL      0.571344
    108 O17         2.6300   -4.2310   -3.1060 o         1 MOL     -0.621321
    109 O18         1.5530   -2.8450   -1.7220 o         1 MOL     -0.621321
    110 H47         2.9740   -1.4150   -0.1310 hn        1 MOL      0.109669
    111 H48         4.9460   -3.2950   -1.0590 h1        1 MOL      0.083950
    112 H49         4.4750   -2.6670   -3.1960 hc        1 MOL      0.020235
    113 H50         3.4500   -1.2570   -2.6540 hc        1 MOL      0.020235
    114 N11         6.0210   -0.2980   -0.6140 n         1 MOL     -0.539488
    115 C36         6.7130    0.9560   -1.0250 c3        1 MOL      0.402578
    116 C37         6.0540    2.1890   -0.3430 c         1 MOL      0.347129
    117 O19         5.7970    2.2650    0.8580 o         1 MOL     -0.474955
    118 C38         8.1280    0.7830   -0.6200 c3        1 MOL     -0.323605
    119 C39         9.1330    1.6130   -1.3670 ca        1 MOL      0.080894
    120 C40         9.3540    2.9430   -1.0620 ca        1 MOL     -0.115846
    121 C41         9.6500    1.1360   -2.5180 ca        1 MOL     -0.115846
    122 C42        10.0600    3.7800   -1.8780 ca        1 MOL     -0.140861
    123 C43        10.5100    1.8880   -3.3650 ca        1 MOL     -0.140861
    124 C44        10.5820    3.2790   -3.1010 ca        1 MOL     -0.125007
    125 H51         5.5120   -0.3270    0.2580 hn        1 MOL      0.336211
    126 H52         6.5650    0.9820   -2.1080 h1        1 MOL      0.006400
    127 H53         8.4110   -0.2570   -0.7640 hc        1 MOL      0.127574
    128 H54         8.1370    1.0700    0.4360 hc        1 MOL      0.127574
    129 H55         9.0010    3.3090   -0.1120 ha        1 MOL      0.109917
    130 H56         9.4150    0.1300   -2.8260 ha        1 MOL      0.109917
    131 H57        10.3790    4.7850   -1.6660 ha        1 MOL      0.121281
    132 H58        10.8300    1.4190   -4.2790 ha        1 MOL      0.121281
    133 H59        11.0560    3.9090   -3.8380 ha        1 MOL      0.104334
    134 N12         5.9870    3.3620   -1.0730 n         1 MOL     -0.244551
    135 C45         5.7670    4.7780   -0.4990 c3        1 MOL      0.186344
    136 C46         4.5300    5.0750    0.3220 c         1 MOL      0.291930
    137 O20         4.3710    6.2190    0.7280 o         1 MOL     -0.523405
    138 C47         5.8360    5.6900   -1.7720 c3        1 MOL     -0.311305
    139 C48         6.6120    4.9040   -2.8080 c3        1 MOL      0.280137
    140 C49         6.2550    3.4270   -2.4980 c3        1 MOL     -0.476905
    141 H60         6.6030    4.9860    0.1620 h1        1 MOL      0.057589
    142 H61         4.8610    5.8300   -2.2240 hc        1 MOL      0.107209
    143 H62         6.3770    6.6320   -1.6240 hc        1 MOL      0.107209
    144 H63         6.2800    5.1140   -3.8280 hc        1 MOL     -0.026910
    145 H64         7.6840    5.0970   -2.7790 hc        1 MOL     -0.026910
    146 H65         5.3630    3.2230   -3.0880 h1        1 MOL      0.185568
    147 H66         7.1390    2.8370   -2.7380 h1        1 MOL      0.185568
    148 N13         3.6150    4.1690    0.4940 n         1 MOL     -0.072449
    149 C50         2.3130    4.3000    1.2320 c3        1 MOL     -0.503457
    150 C51         2.4920    4.7330    2.7140 c         1 MOL      0.598644
    151 O21         1.5840    5.3310    3.3280 o         1 MOL     -0.530881
    152 C52         1.4440    3.0850    1.0200 c3        1 MOL      0.173728
    153 C53         1.9310    1.8760    1.6710 c3        1 MOL     -0.174603
    154 C54         1.1910    0.6380    1.1260 c         1 MOL      0.600683
    155 O22         1.7290    0.0180    0.1670 o         1 MOL     -0.682845
    156 O23         0.0610    0.3730    1.5520 o         1 MOL     -0.682845
    157 H67         3.7200    3.3260   -0.0560 hn        1 MOL      0.239743
    158 H68         1.8290    5.1310    0.7240 h1        1 MOL      0.211566
    159 H69         1.5030    2.9060   -0.0610 hc        1 MOL      0.025069
    160 H70         0.3780    3.2540    1.1620 hc        1 MOL      0.025069
    161 H71         1.8040    1.9230    2.7460 hc        1 MOL      0.066801
    162 H72         2.9760    1.6920    1.3970 hc        1 MOL      0.066801
    163 N14         3.6780    4.5460    3.3440 n         1 MOL     -0.209122
    164 C55         3.9430    4.9380    4.7000 c3        1 MOL     -0.175397
    165 H73         2.9990    5.0640    5.2320 h1        1 MOL      0.079420
    166 H74         4.5370    4.1680    5.1920 h1        1 MOL      0.079420
    167 H75         4.4900    5.8800    4.7060 h1        1 MOL      0.079420
    168 H76         4.4860    4.1960    2.8480 hn        1 MOL      0.230759
    169 Ca1        -0.3500   -1.3690   -0.7420 Ca        1 MOL      1.759476
    170 O24         0.3790   -0.3260   -3.1430 oh        1 MOL     -0.926976
    171 H77        -0.0310    0.3340   -3.7150 ho        1 MOL      0.438647
    172 H78         1.2180   -0.5030   -3.5600 ho        1 MOL      0.438647
    173 O25        -2.1870   -1.8520    1.3030 oh        1 MOL     -0.926976
    174 H79        -2.0130   -1.2450    2.0230 ho        1 MOL      0.438647
    175 H80        -3.0970   -1.6860    1.0750 ho        1 MOL      0.438647
@<TRIPOS>BOND
     1    1    2 1   
     2    1    4 1   
     3    1    5 1   
     4    1    6 1   
     5    2    3 2   
     6    2    7 1   
     7    7    8 1   
     8    7   15 1   
     9    8    9 1   
    10    8   11 1   
    11    8   16 1   
    12    9   10 2   
    13    9   19 1   
    14   11   12 1   
    15   11   17 1   
    16   11   18 1   
    17   12   13 1   
    18   12   14 1   
    19   19   20 1   
    20   19   24 1   
    21   20   21 1   
    22   20   23 1   
    23   20   25 1   
    24   21   22 2   
    25   21   29 1   
    26   23   26 1   
    27   23   27 1   
    28   23   28 1   
    29   29   30 1   
    30   29   37 1   
    31   30   31 1   
    32   30   33 1   
    33   30   38 1   
    34   31   32 2   
    35   31   41 1   
    36   33   34 1   
    37   33   39 1   
    38   33   40 1   
    39   34   35 1   
    40   34   36 1   
    41   41   42 1   
    42   41   45 1   
    43   42   43 1   
    44   42   46 1   
    45   42   47 1   
    46   43   44 2   
    47   43   48 1   
    48   48   49 1   
    49   48   56 1   
    50   49   50 1   
    51   49   52 1   
    52   49   57 1   
    53   50   51 2   
    54   50   62 1   
    55   52   53 1   
    56   52   58 1   
    57   52   59 1   
    58   53   54 1   
    59   53   55 2   
    60   54   60 1   
    61   54   61 1   
    62   62   63 1   
    63   62   66 1   
    64   63   64 1   
    65   63   67 1   
    66   63   68 1   
    67   64   65 2   
    68   64   69 1   
    69   69   70 1   
    70   69   76 1   
    71   70   71 1   
    72   70   73 1   
    73   70   77 1   
    74   71   72 2   
    75   71   83 1   
    76   73   74 1   
    77   73   75 1   
    78   73   78 1   
    79   74   80 1   
    80   74   81 1   
    81   74   82 1   
    82   75   79 1   
    83   83   84 1   
    84   83   91 1   
    85   84   85 1   
    86   84   87 1   
    87   84   92 1   
    88   85   86 2   
    89   85  102 1   
    90   87   88 1   
    91   87   89 1   
    92   87   93 1   
    93   88   90 1   
    94   88   94 1   
    95   88   95 1   
    96   89   96 1   
    97   89   97 1   
    98   89   98 1   
    99   90   99 1   
   100   90  100 1   
   101   90  101 1   
   102  102  103 1   
   103  102  110 1   
   104  103  104 1   
   105  103  106 1   
   106  103  111 1   
   107  104  105 2   
   108  104  114 1   
   109  106  107 1   
   110  106  112 1   
   111  106  113 1   
   112  107  108 1   
   113  107  109 1   
   114  114  115 1   
   115  114  125 1   
   116  115  116 1   
   117  115  118 1   
   118  115  126 1   
   119  116  117 2   
   120  116  134 1   
   121  118  119 1   
   122  118  127 1   
   123  118  128 1   
   124  119  120 ar  
   125  119  121 ar  
   126  120  122 ar  
   127  120  129 1   
   128  121  123 ar  
   129  121  130 1   
   130  122  124 ar  
   131  122  131 1   
   132  123  124 ar  
   133  123  132 1   
   134  124  133 1   
   135  134  135 1   
   136  134  140 1   
   137  135  136 1   
   138  135  138 1   
   139  135  141 1   
   140  136  137 2   
   141  136  148 1   
   142  138  139 1   
   143  138  142 1   
   144  138  143 1   
   145  139  140 1   
   146  139  144 1   
   147  139  145 1   
   148  140  146 1   
   149  140  147 1   
   150  148  149 1   
   151  148  157 1   
   152  149  150 1   
   153  149  152 1   
   154  149  158 1   
   155  150  151 2   
   156  150  163 1   
   157  152  153 1   
   158  152  159 1   
   159  152  160 1   
   160  153  154 1   
   161  153  161 1   
   162  153  162 1   
   163  154  155 1   
   164  154  156 1   
   165  163  164 1   
   166  163  168 1   
   167  164  165 1   
   168  164  166 1   
   169  164  167 1   
   170  170  171 1   
   171  170  172 1   
   172  173  174 1   
   173  173  175 1   
@<TRIPOS>SUBSTRUCTURE
     1 MOL         1 TEMP              0 ****  ****    0 ROOT
