@<TRIPOS>MOLECULE
MOL
  195   189     1     0     0
SMALL
resp


@<TRIPOS>ATOM
      1 C1          1.2320    3.8980    3.0630 c3        1 MOL     -0.629882
      2 C2          0.3070    3.8430    1.8450 c         1 MOL      0.725288
      3 O1         -0.6000    3.0690    1.8330 o         1 MOL     -0.566086
      4 H1          1.5390    4.9290    3.2400 hc        1 MOL      0.158440
      5 H2          0.7030    3.5220    3.9390 hc        1 MOL      0.158440
      6 H3          2.1130    3.2840    2.8790 hc        1 MOL      0.158440
      7 N1          0.5120    4.7880    0.9500 n         1 MOL     -0.464677
      8 C3         -0.2500    5.0220   -0.2890 c3        1 MOL     -0.219933
      9 C4         -1.7710    4.5680   -0.2620 c         1 MOL      0.872424
     10 O2         -2.1980    4.1260   -1.3310 o         1 MOL     -0.582912
     11 C5          0.5190    4.3490   -1.4510 c3        1 MOL     -0.415421
     12 C6          1.9910    4.8980   -1.6510 c         1 MOL      0.928926
     13 O3          2.8610    4.1290   -2.1090 o         1 MOL     -0.767940
     14 O4          2.2790    6.1030   -1.4420 o         1 MOL     -0.767940
     15 H4          1.3360    5.3590    1.0410 hn        1 MOL      0.228079
     16 H5         -0.3160    6.1000   -0.4040 h1        1 MOL      0.119185
     17 H6          0.0350    4.6060   -2.3930 hc        1 MOL      0.138472
     18 H7          0.5150    3.2830   -1.2440 hc        1 MOL      0.138472
     19 N2         -2.4960    4.8860    0.7790 n         1 MOL     -0.639645
     20 C7         -3.9930    4.7840    0.8540 c3        1 MOL     -0.031491
     21 C8         -4.7790    5.5000   -0.2450 c         1 MOL      0.389539
     22 O5         -4.2670    6.5640   -0.6810 o         1 MOL     -0.580013
     23 C9         -4.5190    5.1430    2.2060 c3        1 MOL      0.271842
     24 C10        -4.3820    6.6040    2.5730 c3        1 MOL      0.176317
     25 C11        -3.8300    4.2760    3.3350 c3        1 MOL     -0.284173
     26 C12        -5.0910    6.9230    3.8590 c3        1 MOL     -0.128341
     27 H8         -1.9600    5.3590    1.4920 hn        1 MOL      0.339920
     28 H9         -4.2270    3.7620    0.5540 h1        1 MOL      0.104988
     29 H10        -5.5730    4.8500    2.2140 hc        1 MOL     -0.004284
     30 H11        -4.8050    7.2660    1.8100 hc        1 MOL     -0.050126
     31 H12        -3.3180    6.8340    2.5660 hc        1 MOL     -0.050126
     32 H13        -2.7890    4.5670    3.4470 hc        1 MOL      0.060418
     33 H14        -4.4320    4.2750    4.2410 hc        1 MOL      0.060418
     34 H15        -3.7840    3.2410    2.9570 hc        1 MOL      0.060418
     35 H16        -4.7720    7.9100    4.1920 hc        1 MOL      0.010976
     36 H17        -6.1620    7.0270    3.6610 hc        1 MOL      0.010976
     37 H18        -4.8050    6.2430    4.6610 hc        1 MOL      0.010976
     38 N3         -5.9960    5.2210   -0.6150 n         1 MOL     -0.263336
     39 C13        -6.7240    3.9900   -0.1740 c3        1 MOL     -0.084565
     40 C14        -6.4000    2.7720   -1.0620 c         1 MOL      0.567535
     41 O6         -6.5210    1.6980   -0.4940 o         1 MOL     -0.512497
     42 C15        -8.2380    4.1380   -0.0180 c3        1 MOL     -0.050758
     43 C16        -8.6090    5.3710    0.8330 c         1 MOL      0.689537
     44 O7         -8.9270    6.4430    0.2530 o         1 MOL     -0.717313
     45 O8         -8.6100    5.2820    2.1050 o         1 MOL     -0.717313
     46 H19        -6.4370    5.9230   -1.1840 hn        1 MOL      0.265461
     47 H20        -6.4490    3.6340    0.8200 h1        1 MOL      0.076196
     48 H21        -8.6480    3.2670    0.4830 hc        1 MOL     -0.007770
     49 H22        -8.6780    4.1840   -1.0160 hc        1 MOL     -0.007770
     50 N4         -5.8660    2.9950   -2.2960 n         1 MOL     -0.464075
     51 C17        -5.0490    2.0320   -3.1000 c3        1 MOL     -0.138865
     52 C18        -5.8960    0.7410   -3.3850 c         1 MOL      0.499106
     53 O9         -7.1140    0.6640   -3.4880 o         1 MOL     -0.532707
     54 H23        -5.8560    3.9780   -2.5720 hn        1 MOL      0.294383
     55 H24        -4.2180    1.7570   -2.4450 h1        1 MOL      0.125737
     56 H25        -4.6680    2.4050   -4.0490 h1        1 MOL      0.125737
     57 N5         -5.1080   -0.3440   -3.4910 n         1 MOL     -0.391638
     58 C19        -5.6500   -1.6850   -3.8230 c3        1 MOL      0.077743
     59 C20        -6.4630   -2.3400   -2.6820 c         1 MOL      0.507448
     60 O10        -7.4070   -3.0490   -3.0030 o         1 MOL     -0.593757
     61 C21        -4.4660   -2.6770   -4.1280 c3        1 MOL     -0.238846
     62 C22        -3.4940   -2.6340   -2.9030 c         1 MOL      0.711801
     63 O11        -3.5860   -3.5370   -2.0380 o         1 MOL     -0.670231
     64 O12        -2.6840   -1.6680   -2.7770 o         1 MOL     -0.670231
     65 H26        -4.1490   -0.2840   -3.1790 hn        1 MOL      0.194814
     66 H27        -6.2930   -1.7050   -4.6960 h1        1 MOL      0.073335
     67 H28        -3.9200   -2.2140   -4.9500 hc        1 MOL      0.041943
     68 H29        -4.8490   -3.6820   -4.3130 hc        1 MOL      0.041943
     69 N6         -6.3330   -1.9880   -1.3910 n         1 MOL     -0.118796
     70 C23        -7.0960   -2.4590   -0.2610 c3        1 MOL     -0.249117
     71 C24        -6.4070   -3.5280    0.5570 c         1 MOL      0.576456
     72 O13        -6.7330   -3.5890    1.7150 o         1 MOL     -0.568377
     73 H30        -5.7500   -1.1820   -1.2310 hn        1 MOL      0.209332
     74 H31        -7.9780   -2.9570   -0.6500 h1        1 MOL      0.118719
     75 H32        -7.2870   -1.6050    0.3800 h1        1 MOL      0.118719
     76 N7         -5.4420   -4.2790   -0.0040 n         1 MOL     -0.268236
     77 C25        -4.7630   -5.4680    0.5570 c3        1 MOL     -0.055121
     78 C26        -4.1680   -5.2890    2.0140 c         1 MOL      0.483051
     79 O14        -4.0420   -6.2410    2.8120 o         1 MOL     -0.524606
     80 C27        -5.6400   -6.7550    0.3220 c3        1 MOL      0.097789
     81 C28        -5.6820   -7.0430   -1.2380 c3        1 MOL     -0.156838
     82 C29        -5.0460   -8.3440   -1.7240 c         1 MOL      0.685194
     83 N8         -5.2900   -8.7840   -2.9630 n         1 MOL     -0.843636
     84 O15        -4.3560   -9.0090   -0.9270 o         1 MOL     -0.555993
     85 H33        -5.1230   -3.9580   -0.9030 hn        1 MOL      0.117511
     86 H34        -3.9460   -5.5370   -0.1620 h1        1 MOL      0.125518
     87 H35        -6.6500   -6.6360    0.7300 hc        1 MOL     -0.003998
     88 H36        -5.2860   -7.6370    0.8650 hc        1 MOL     -0.003998
     89 H37        -5.2660   -6.2420   -1.8460 hc        1 MOL      0.039565
     90 H38        -6.7250   -7.1650   -1.5450 hc        1 MOL      0.039565
     91 H39        -5.6510   -8.1930   -3.6920 hn        1 MOL      0.359785
     92 H40        -5.0990   -9.7390   -3.2150 hn        1 MOL      0.359785
     93 N9         -3.6900   -4.0960    2.3910 n         1 MOL     -0.371798
     94 C30        -3.1830   -3.6710    3.7820 c3        1 MOL      0.004217
     95 C31        -1.7640   -3.1560    3.8320 c         1 MOL      0.694322
     96 O16        -1.2520   -3.0100    4.8940 o         1 MOL     -0.600942
     97 C32        -4.0380   -2.5100    4.4600 c3        1 MOL      0.481545
     98 C33        -4.1520   -1.2970    3.6100 c3        1 MOL     -0.450240
     99 C34        -5.3720   -2.9150    4.9520 c3        1 MOL     -0.450240
    100 H41        -3.7360   -3.3580    1.6980 hn        1 MOL      0.230738
    101 H42        -3.0520   -4.4750    4.5040 h1        1 MOL      0.045325
    102 H43        -3.4550   -2.2930    5.3500 hc        1 MOL     -0.082981
    103 H44        -4.7030   -1.5610    2.7060 hc        1 MOL      0.098849
    104 H45        -4.7550   -0.4700    3.9970 hc        1 MOL      0.098849
    105 H46        -3.1550   -0.8570    3.4810 hc        1 MOL      0.098849
    106 H47        -5.2320   -3.7090    5.6850 hc        1 MOL      0.098849
    107 H48        -5.7450   -2.0660    5.5140 hc        1 MOL      0.098849
    108 H49        -5.9850   -3.2410    4.1070 hc        1 MOL      0.098849
    109 N10        -1.2150   -2.7540    2.7120 n         1 MOL     -0.729837
    110 C35         0.0830   -2.0450    2.4570 c3        1 MOL      0.599508
    111 C36         0.9010   -2.6220    1.2990 c         1 MOL      0.388414
    112 O17         0.4100   -3.4450    0.5590 o         1 MOL     -0.473771
    113 C37        -0.3000   -0.5750    2.2720 c3        1 MOL     -0.251226
    114 C38         0.8740    0.2890    1.9070 c         1 MOL      0.555646
    115 N11         0.9720    0.7620    0.7670 n         1 MOL     -0.598775
    116 O18         1.8370    0.4080    2.6470 o         1 MOL     -0.618762
    117 H50        -1.7420   -2.9110    1.8590 hn        1 MOL      0.265207
    118 H51         0.6950   -2.1370    3.3610 h1        1 MOL     -0.020948
    119 H52        -0.6240   -0.2310    3.2550 hc        1 MOL      0.093394
    120 H53        -1.0570   -0.4630    1.4960 hc        1 MOL      0.093394
    121 H54         0.1990    0.6460    0.1260 hn        1 MOL      0.345188
    122 H55         1.7830    1.3460    0.6170 hn        1 MOL      0.345188
    123 N12         2.1330   -2.1250    1.0540 n         1 MOL     -0.593282
    124 C39         3.0710   -2.7530    0.0990 c3        1 MOL      0.317911
    125 C40         4.6000   -2.4870    0.4660 c         1 MOL      0.481885
    126 O19         4.9330   -1.4650    1.1400 o         1 MOL     -0.524317
    127 C41         2.7470   -2.3260   -1.3420 c3        1 MOL     -0.178808
    128 C42         2.9500   -3.3240   -2.4590 ca        1 MOL      0.036131
    129 C43         4.2790   -3.3250   -2.9880 ca        1 MOL     -0.146716
    130 C44         2.1060   -4.4050   -2.6900 ca        1 MOL     -0.146716
    131 C45         4.6580   -4.3290   -3.9510 ca        1 MOL     -0.266148
    132 C46         2.4910   -5.3980   -3.5610 ca        1 MOL     -0.266148
    133 C47         3.7260   -5.3120   -4.2380 ca        1 MOL      0.339362
    134 O20         3.9430   -6.1650   -5.2570 oh        1 MOL     -0.510086
    135 H56         2.4860   -1.2760    1.4740 hn        1 MOL      0.275880
    136 H57         3.0000   -3.8310    0.0150 h1        1 MOL      0.068166
    137 H58         3.1250   -1.3450   -1.6420 hc        1 MOL      0.057450
    138 H59         1.6890   -2.0640   -1.3270 hc        1 MOL      0.057450
    139 H60         5.0460   -2.6190   -2.6880 ha        1 MOL      0.164571
    140 H61         1.1530   -4.4830   -2.1900 ha        1 MOL      0.164571
    141 H62         5.5890   -4.3260   -4.4860 ha        1 MOL      0.149180
    142 H63         1.8470   -6.2500   -3.7320 ha        1 MOL      0.149180
    143 H64         4.7860   -6.1270   -5.7150 ho        1 MOL      0.360937
    144 N13         5.5390   -3.3630    0.0760 n         1 MOL     -0.783759
    145 C48         7.0320   -3.2920    0.3860 c3        1 MOL      0.487618
    146 C49         7.8540   -2.7210   -0.7800 c         1 MOL      0.352258
    147 O21         8.2940   -3.4040   -1.7340 o         1 MOL     -0.572951
    148 C50         7.6650   -4.6390    0.9670 c3        1 MOL     -0.262596
    149 C51         7.1010   -5.3240    2.2660 c3        1 MOL     -0.102615
    150 C52         7.6890   -6.7480    2.4670 c         1 MOL      0.595342
    151 O22         7.9240   -7.0980    3.6590 o         1 MOL     -0.658401
    152 O23         7.5660   -7.6280    1.5810 o         1 MOL     -0.658401
    153 H65         5.2540   -4.1140   -0.5270 hn        1 MOL      0.375501
    154 H66         7.1790   -2.5590    1.1810 h1        1 MOL      0.026931
    155 H67         8.7350   -4.4660    0.9680 hc        1 MOL      0.072841
    156 H68         7.4180   -5.4020    0.2270 hc        1 MOL      0.072841
    157 H69         6.0260   -5.3830    2.0590 hc        1 MOL      0.038088
    158 H70         7.2150   -4.7310    3.1710 hc        1 MOL      0.038088
    159 N14         8.0880   -1.4270   -0.8960 n         1 MOL     -0.319957
    160 C53         7.6410   -0.3100   -0.0610 c3        1 MOL     -0.152805
    161 C54         8.2020   -0.3980    1.3720 c         1 MOL      0.497766
    162 O24         9.3440   -0.8600    1.5910 o         1 MOL     -0.554842
    163 C55         7.9710    1.0160   -0.7640 c3        1 MOL     -0.047968
    164 C56         7.3510    2.1950   -0.0720 c3        1 MOL      0.162945
    165 C57         7.5470    3.5820   -0.6180 c         1 MOL      0.659801
    166 O25         6.6510    4.1450   -1.2760 o         1 MOL     -0.713941
    167 O26         8.7400    3.9790   -0.6490 o         1 MOL     -0.713941
    168 H71         8.5260   -1.2180   -1.7790 hn        1 MOL      0.269607
    169 H72         6.5510   -0.3300    0.0130 h1        1 MOL      0.131244
    170 H73         7.4650    0.9660   -1.7340 hc        1 MOL      0.038168
    171 H74         9.0440    1.1250   -0.8630 hc        1 MOL      0.038168
    172 H75         7.7370    2.2680    0.9400 hc        1 MOL     -0.098665
    173 H76         6.2820    2.0040    0.0390 hc        1 MOL     -0.098665
    174 N15         7.3810   -0.2290    2.4120 n         1 MOL     -0.183904
    175 C58         7.6600   -0.3490    3.8720 c3        1 MOL     -0.106943
    176 H77         7.3280   -1.3240    4.2260 h1        1 MOL      0.065644
    177 H78         8.7300   -0.2440    4.0480 h1        1 MOL      0.065644
    178 H79         7.1250    0.4330    4.4100 h1        1 MOL      0.065644
    179 H80         6.4730    0.1340    2.1470 hn        1 MOL      0.208718
    180 Ca1         4.9640    6.0490   -1.1450 Ca        1 MOL      1.748380
    181 O27         4.6350    5.8130   -3.7800 oh        1 MOL     -0.868383
    182 H81         4.1410    6.4920   -4.2320 ho        1 MOL      0.413164
    183 H82         5.3260    5.5760   -4.3880 ho        1 MOL      0.413164
    184 O28         6.3640    6.6230    0.9670 oh        1 MOL     -0.868383
    185 H83         6.8840    6.0610    1.5490 ho        1 MOL      0.413164
    186 H84         6.4930    7.5050    1.3110 ho        1 MOL      0.413164
    187 O29         4.1980    4.3410    0.8630 oh        1 MOL     -0.868383
    188 H85         4.0390    3.4150    0.6780 ho        1 MOL      0.413164
    189 H86         4.2970    4.3850    1.8140 ho        1 MOL      0.413164
    190 O30         4.8230    8.8020   -1.7380 oh        1 MOL     -0.868383
    191 H87         5.5450    9.3680   -2.0060 ho        1 MOL      0.413164
    192 H88         4.0310    9.3010   -1.9540 ho        1 MOL      0.413164
    193 O31         7.0750    6.9030   -2.6730 oh        1 MOL     -0.868383
    194 H89         7.6930    6.1970   -2.8700 ho        1 MOL      0.413164
    195 H90         7.4960    7.7010   -2.9960 ho        1 MOL      0.413164
@<TRIPOS>BOND
     1    1    2 1   
     2    1    4 1   
     3    1    5 1   
     4    1    6 1   
     5    2    3 2   
     6    2    7 1   
     7    7    8 1   
     8    7   15 1   
     9    8    9 1   
    10    8   11 1   
    11    8   16 1   
    12    9   10 2   
    13    9   19 1   
    14   11   12 1   
    15   11   17 1   
    16   11   18 1   
    17   12   13 1   
    18   12   14 1   
    19   19   20 1   
    20   19   27 1   
    21   20   21 1   
    22   20   23 1   
    23   20   28 1   
    24   21   22 2   
    25   21   38 1   
    26   23   24 1   
    27   23   25 1   
    28   23   29 1   
    29   24   26 1   
    30   24   30 1   
    31   24   31 1   
    32   25   32 1   
    33   25   33 1   
    34   25   34 1   
    35   26   35 1   
    36   26   36 1   
    37   26   37 1   
    38   38   39 1   
    39   38   46 1   
    40   39   40 1   
    41   39   42 1   
    42   39   47 1   
    43   40   41 2   
    44   40   50 1   
    45   42   43 1   
    46   42   48 1   
    47   42   49 1   
    48   43   44 1   
    49   43   45 1   
    50   50   51 1   
    51   50   54 1   
    52   51   52 1   
    53   51   55 1   
    54   51   56 1   
    55   52   53 2   
    56   52   57 1   
    57   57   58 1   
    58   57   65 1   
    59   58   59 1   
    60   58   61 1   
    61   58   66 1   
    62   59   60 2   
    63   59   69 1   
    64   61   62 1   
    65   61   67 1   
    66   61   68 1   
    67   62   63 1   
    68   62   64 1   
    69   69   70 1   
    70   69   73 1   
    71   70   71 1   
    72   70   74 1   
    73   70   75 1   
    74   71   72 2   
    75   71   76 1   
    76   76   77 1   
    77   76   85 1   
    78   77   78 1   
    79   77   80 1   
    80   77   86 1   
    81   78   79 2   
    82   78   93 1   
    83   80   81 1   
    84   80   87 1   
    85   80   88 1   
    86   81   82 1   
    87   81   89 1   
    88   81   90 1   
    89   82   83 1   
    90   82   84 2   
    91   83   91 1   
    92   83   92 1   
    93   93   94 1   
    94   93  100 1   
    95   94   95 1   
    96   94   97 1   
    97   94  101 1   
    98   95   96 2   
    99   95  109 1   
   100   97   98 1   
   101   97   99 1   
   102   97  102 1   
   103   98  103 1   
   104   98  104 1   
   105   98  105 1   
   106   99  106 1   
   107   99  107 1   
   108   99  108 1   
   109  109  110 1   
   110  109  117 1   
   111  110  111 1   
   112  110  113 1   
   113  110  118 1   
   114  111  112 2   
   115  111  123 1   
   116  113  114 1   
   117  113  119 1   
   118  113  120 1   
   119  114  115 1   
   120  114  116 2   
   121  115  121 1   
   122  115  122 1   
   123  123  124 1   
   124  123  135 1   
   125  124  125 1   
   126  124  127 1   
   127  124  136 1   
   128  125  126 2   
   129  125  144 1   
   130  127  128 1   
   131  127  137 1   
   132  127  138 1   
   133  128  129 ar  
   134  128  130 ar  
   135  129  131 ar  
   136  129  139 1   
   137  130  132 ar  
   138  130  140 1   
   139  131  133 ar  
   140  131  141 1   
   141  132  133 ar  
   142  132  142 1   
   143  133  134 1   
   144  134  143 1   
   145  144  145 1   
   146  144  153 1   
   147  145  146 1   
   148  145  148 1   
   149  145  154 1   
   150  146  147 2   
   151  146  159 1   
   152  148  149 1   
   153  148  155 1   
   154  148  156 1   
   155  149  150 1   
   156  149  157 1   
   157  149  158 1   
   158  150  151 1   
   159  150  152 1   
   160  159  160 1   
   161  159  168 1   
   162  160  161 1   
   163  160  163 1   
   164  160  169 1   
   165  161  162 2   
   166  161  174 1   
   167  163  164 1   
   168  163  170 1   
   169  163  171 1   
   170  164  165 1   
   171  164  172 1   
   172  164  173 1   
   173  165  166 1   
   174  165  167 1   
   175  174  175 1   
   176  174  179 1   
   177  175  176 1   
   178  175  177 1   
   179  175  178 1   
   180  181  182 1   
   181  181  183 1   
   182  184  185 1   
   183  184  186 1   
   184  187  188 1   
   185  187  189 1   
   186  190  191 1   
   187  190  192 1   
   188  193  194 1   
   189  193  195 1   
@<TRIPOS>SUBSTRUCTURE
     1 MOL         1 TEMP              0 ****  ****    0 ROOT
