@<TRIPOS>MOLECULE
MOL
  201   193     1     0     0
SMALL
resp


@<TRIPOS>ATOM
      1 C1          2.1370   -5.5940   -0.2680 c3        1 MOL     -0.210617
      2 C2          1.4270   -4.2730   -0.2720 c         1 MOL      0.680716
      3 O1          2.0220   -3.2460   -0.6260 o         1 MOL     -0.669994
      4 H1          2.6420   -5.7370   -1.2230 hc        1 MOL      0.042180
      5 H2          2.8720   -5.6100    0.5360 hc        1 MOL      0.042180
      6 H3          1.4140   -6.3960   -0.1160 hc        1 MOL      0.042180
      7 N1          0.1350   -4.1440    0.1220 n         1 MOL     -0.382815
      8 C3         -0.7210   -5.1260    0.9130 c3        1 MOL     -0.054050
      9 C4         -1.5700   -5.9570    0.0020 c         1 MOL      0.415601
     10 O2         -2.0840   -6.9490    0.4590 o         1 MOL     -0.529700
     11 C5         -1.5470   -4.4650    2.0230 c3        1 MOL     -0.244430
     12 C6         -0.9680   -3.2530    2.7020 c         1 MOL      0.763055
     13 O3         -1.1970   -2.1990    2.1910 o         1 MOL     -0.683824
     14 O4         -0.5110   -3.3650    3.8480 o         1 MOL     -0.683824
     15 H4         -0.2540   -3.2160    0.1220 hn        1 MOL      0.251629
     16 H5         -0.1430   -5.8910    1.4300 h1        1 MOL      0.109270
     17 H6         -1.8780   -5.1780    2.7790 hc        1 MOL      0.091202
     18 H7         -2.4710   -4.0500    1.6190 hc        1 MOL      0.091202
     19 N2         -1.7440   -5.4840   -1.2560 n         1 MOL     -0.069755
     20 C7         -2.6950   -6.2110   -2.1550 c3        1 MOL     -0.344995
     21 C8         -4.1790   -6.0090   -1.7380 c         1 MOL      0.440746
     22 O5         -4.9860   -6.8920   -2.0640 o         1 MOL     -0.565262
     23 C9         -2.4450   -5.7880   -3.6310 c3        1 MOL      0.279106
     24 C10        -2.6900   -4.2820   -3.8060 c3        1 MOL      0.314832
     25 C11        -1.0510   -6.2800   -4.0280 c3        1 MOL     -0.294471
     26 C12        -2.6700   -3.9190   -5.2820 c3        1 MOL     -0.315047
     27 H8         -1.2640   -4.6580   -1.5800 hn        1 MOL      0.104208
     28 H9         -2.5020   -7.2720   -2.0580 h1        1 MOL      0.146642
     29 H10        -3.1780   -6.3190   -4.2400 hc        1 MOL     -0.023352
     30 H11        -1.8670   -3.6870   -3.4060 hc        1 MOL     -0.069992
     31 H12        -3.6430   -4.0340   -3.3550 hc        1 MOL     -0.069992
     32 H13        -1.0210   -6.1770   -5.1140 hc        1 MOL      0.051557
     33 H14        -0.3490   -5.6750   -3.4640 hc        1 MOL      0.051557
     34 H15        -0.8900   -7.2900   -3.6730 hc        1 MOL      0.051557
     35 H16        -1.7120   -4.2910   -5.6390 hc        1 MOL      0.049378
     36 H17        -3.3900   -4.5690   -5.7960 hc        1 MOL      0.049378
     37 H18        -2.7560   -2.8410   -5.3920 hc        1 MOL      0.049378
     38 N3         -4.4380   -5.0230   -0.9070 n         1 MOL     -0.041757
     39 C13        -5.5380   -4.7630   -0.0550 c3        1 MOL      0.126649
     40 C14        -5.2050   -3.6190    0.9820 c         1 MOL      0.018699
     41 O6         -4.6920   -2.6070    0.5400 o         1 MOL     -0.384843
     42 C15        -6.7530   -4.4000   -0.9930 c3        1 MOL     -0.141776
     43 C16        -8.0220   -4.2920   -0.1510 c         1 MOL      0.684855
     44 O7         -9.1110   -4.1840   -0.7980 o         1 MOL     -0.656154
     45 O8         -7.9490   -4.4230    1.1050 o         1 MOL     -0.656154
     46 H19        -3.6080   -4.5110   -0.6400 hn        1 MOL      0.067123
     47 H20        -5.9080   -5.6280    0.5090 h1        1 MOL      0.031385
     48 H21        -6.8480   -5.0500   -1.8630 hc        1 MOL      0.034321
     49 H22        -6.5990   -3.3550   -1.2910 hc        1 MOL      0.034321
     50 N4         -5.5290   -3.8040    2.2580 n         1 MOL     -0.276466
     51 C17        -5.2940   -2.7630    3.2480 c3        1 MOL     -0.183474
     52 C18        -6.0190   -1.4560    3.1680 c         1 MOL      0.644615
     53 O9         -5.7870   -0.5830    4.0140 o         1 MOL     -0.593792
     54 H23        -6.1360   -4.5870    2.4450 hn        1 MOL      0.312600
     55 H24        -4.2220   -2.5480    3.2620 h1        1 MOL      0.130020
     56 H25        -5.4970   -3.2190    4.2230 h1        1 MOL      0.130020
     57 N5         -6.9250   -1.1940    2.2030 n         1 MOL     -0.463024
     58 C19        -7.4510    0.1660    1.9760 c3        1 MOL     -0.014469
     59 C20        -7.6890    0.3770    0.4780 c         1 MOL      0.652891
     60 O10        -8.3090   -0.3850   -0.2260 o         1 MOL     -0.527930
     61 C21        -8.8010    0.3650    2.7350 c3        1 MOL     -0.307320
     62 C22        -9.4400    1.7370    2.3850 c         1 MOL      0.714944
     63 O11       -10.4150    1.7460    1.6340 o         1 MOL     -0.655918
     64 O12        -9.0650    2.7800    2.8950 o         1 MOL     -0.655918
     65 H26        -7.1670   -1.9020    1.5310 hn        1 MOL      0.337732
     66 H27        -6.6450    0.8160    2.2970 h1        1 MOL      0.127598
     67 H28        -8.6620    0.3110    3.8160 hc        1 MOL      0.085477
     68 H29        -9.4800   -0.3950    2.3390 hc        1 MOL      0.085477
     69 N6         -7.1990    1.4130   -0.1240 n         1 MOL     -0.529621
     70 C23        -6.1110    2.2960    0.3840 c3        1 MOL      0.120697
     71 C24        -6.0290    3.6600   -0.2500 c         1 MOL      0.549775
     72 O13        -6.3060    3.7900   -1.4400 o         1 MOL     -0.579367
     73 H30        -7.2920    1.3800   -1.1220 hn        1 MOL      0.287092
     74 H31        -5.1180    1.8460    0.2970 h1        1 MOL      0.038778
     75 H32        -6.0940    2.4060    1.4710 h1        1 MOL      0.038778
     76 N7         -5.5270    4.6560    0.4150 n         1 MOL     -0.428460
     77 C25        -4.9380    4.8160    1.7750 c3        1 MOL      0.086751
     78 C26        -3.7600    3.8190    2.0740 c         1 MOL      0.405350
     79 O14        -3.7610    3.2230    3.1850 o         1 MOL     -0.477209
     80 C27        -5.9620    4.9410    2.8940 c3        1 MOL     -0.035065
     81 C28        -6.7190    6.2640    2.8180 c3        1 MOL     -0.007615
     82 C29        -7.6880    6.3160    1.6450 c         1 MOL      0.588314
     83 N8         -8.6060    5.4100    1.6000 n         1 MOL     -0.716184
     84 O15        -7.5190    7.1760    0.7670 o         1 MOL     -0.637564
     85 H33        -5.4900    5.5140   -0.1160 hn        1 MOL      0.270648
     86 H34        -4.3220    5.7100    1.7390 h1        1 MOL      0.043436
     87 H35        -5.3440    4.9190    3.7880 hc        1 MOL      0.020428
     88 H36        -6.7030    4.1460    2.9510 hc        1 MOL      0.020428
     89 H37        -6.0260    7.1130    2.8140 hc        1 MOL     -0.008127
     90 H38        -7.2960    6.5190    3.7010 hc        1 MOL     -0.008127
     91 H39        -8.7750    4.6610    2.2470 hn        1 MOL      0.350402
     92 H40        -9.0610    5.4090    0.6930 hn        1 MOL      0.350402
     93 N9         -2.8620    3.6940    1.1060 n         1 MOL     -0.224919
     94 C30        -1.9310    2.5940    0.8390 c3        1 MOL     -0.186817
     95 C31        -1.9820    2.2760   -0.6500 c         1 MOL      0.459165
     96 O16        -2.3340    3.1130   -1.4830 o         1 MOL     -0.510623
     97 C32        -0.4840    2.9760    1.2530 c3        1 MOL      0.081592
     98 C33        -0.3640    2.9640    2.7660 c3        1 MOL     -0.231417
     99 C34        -0.0600    4.3360    0.7090 c3        1 MOL     -0.231417
    100 H41        -2.9690    4.2980    0.3040 hn        1 MOL      0.186685
    101 H42        -2.2730    1.7230    1.3920 h1        1 MOL      0.168567
    102 H43         0.1660    2.1550    0.9650 hc        1 MOL      0.076041
    103 H44        -1.0630    3.6980    3.1560 hc        1 MOL      0.067325
    104 H45        -0.6510    2.0160    3.2290 hc        1 MOL      0.067325
    105 H46         0.6230    3.2110    3.1470 hc        1 MOL      0.067325
    106 H47        -0.2320    4.4520   -0.3690 hc        1 MOL      0.067325
    107 H48        -0.6450    5.1900    1.0580 hc        1 MOL      0.067325
    108 H49         0.9940    4.5750    0.8320 hc        1 MOL      0.067325
    109 N10        -1.6210    1.0610   -1.0500 n         1 MOL     -0.338140
    110 C35        -1.5470    0.6520   -2.4450 c3        1 MOL     -0.063970
    111 C36        -0.4120    1.3510   -3.2580 c         1 MOL      0.433953
    112 O17        -0.4250    1.3760   -4.4670 o         1 MOL     -0.518243
    113 C37        -1.3750   -0.8700   -2.6370 c3        1 MOL      0.000596
    114 C38        -2.3230   -1.6940   -1.7880 c         1 MOL      0.342242
    115 N11        -3.6320   -1.4170   -1.8740 n         1 MOL     -0.649092
    116 O18        -1.9590   -2.5820   -1.0080 o         1 MOL     -0.373408
    117 H50        -1.1420    0.5120   -0.3390 hn        1 MOL      0.314009
    118 H51        -2.4750    0.9830   -2.9010 h1        1 MOL      0.125711
    119 H52        -0.3450   -1.1220   -2.3760 hc        1 MOL      0.054999
    120 H53        -1.4990   -1.1300   -3.6910 hc        1 MOL      0.054999
    121 H54        -3.9590   -0.6880   -2.4860 hn        1 MOL      0.348620
    122 H55        -4.1100   -1.7820   -1.0570 hn        1 MOL      0.348620
    123 N12         0.6140    2.0120   -2.5490 n         1 MOL     -0.063133
    124 C39         1.8970    2.2860   -3.2360 c3        1 MOL     -0.113044
    125 C40         2.8520    2.3330   -2.0190 c         1 MOL      0.506443
    126 O19         2.4600    2.6020   -0.8920 o         1 MOL     -0.512930
    127 C41         1.7700    3.6120   -4.0170 c3        1 MOL      0.045324
    128 C42         1.4760    4.9280   -3.2820 ca        1 MOL     -0.107393
    129 C43         2.5580    5.7150   -2.7770 ca        1 MOL     -0.032252
    130 C44         0.1710    5.2900   -3.0170 ca        1 MOL     -0.032252
    131 C45         2.2690    6.9010   -2.0730 ca        1 MOL     -0.339957
    132 C46        -0.1700    6.5100   -2.3890 ca        1 MOL     -0.339957
    133 C47         0.9420    7.2870   -1.9680 ca        1 MOL      0.389127
    134 O20         0.6820    8.4540   -1.3200 oh        1 MOL     -0.546334
    135 H56         0.5940    1.9540   -1.5340 hn        1 MOL      0.079459
    136 H57         2.1020    1.4060   -3.8470 h1        1 MOL      0.066578
    137 H58         1.0570    3.4680   -4.8310 hc        1 MOL      0.009722
    138 H59         2.7570    3.8120   -4.4510 hc        1 MOL      0.009722
    139 H60         3.5450    5.3750   -3.0540 ha        1 MOL      0.116334
    140 H61        -0.5730    4.6730   -3.4830 ha        1 MOL      0.116334
    141 H62         3.0190    7.6120   -1.7490 ha        1 MOL      0.172185
    142 H63        -1.1850    6.8150   -2.1830 ha        1 MOL      0.172185
    143 H64        -0.2150    8.4840   -1.0030 ho        1 MOL      0.380505
    144 N13         4.0890    2.0460   -2.3180 n         1 MOL     -0.403098
    145 C48         5.2510    2.1690   -1.5310 c3        1 MOL      0.665278
    146 C49         5.9810    0.7860   -1.3670 c         1 MOL     -0.249397
    147 O21         7.1650    0.5690   -1.6400 o         1 MOL     -0.259916
    148 C50         6.1590    3.2420   -2.0830 c3        1 MOL     -0.469067
    149 C51         7.1110    3.5990   -0.9450 c3        1 MOL     -0.131459
    150 C52         8.3390    4.4100   -1.4090 c         1 MOL      0.705079
    151 O22         9.4650    3.9590   -1.3190 o         1 MOL     -0.699032
    152 O23         8.1630    5.6030   -1.7820 o         1 MOL     -0.699032
    153 H65         4.2630    1.8660   -3.2950 hn        1 MOL      0.249340
    154 H66         4.9490    2.3830   -0.5070 h1        1 MOL     -0.062902
    155 H67         5.5660    4.1180   -2.3570 hc        1 MOL      0.098851
    156 H68         6.6680    2.9300   -2.9910 hc        1 MOL      0.098851
    157 H69         7.4700    2.7560   -0.3700 hc        1 MOL      0.055654
    158 H70         6.5060    4.2020   -0.2660 hc        1 MOL      0.055654
    159 N14         5.2240   -0.1470   -0.7980 n         1 MOL      0.045775
    160 C53         5.5900   -1.5550   -0.7000 c3        1 MOL      0.066712
    161 C54         5.1300   -2.3710   -1.8970 c         1 MOL      0.461360
    162 O24         5.7290   -3.2810   -2.3730 o         1 MOL     -0.555014
    163 C55         5.2290   -2.2810    0.5980 c3        1 MOL     -0.071522
    164 C56         5.5620   -1.4290    1.8320 c3        1 MOL     -0.623913
    165 C57         7.0450   -1.1230    2.0530 c         1 MOL      0.714298
    166 O25         7.4530   -0.1740    2.7460 o         1 MOL     -0.601917
    167 O26         7.9100   -1.9530    1.5720 o         1 MOL     -0.601917
    168 H71         4.2700    0.0550   -0.5540 hn        1 MOL      0.192856
    169 H72         6.6720   -1.6900   -0.6670 h1        1 MOL      0.007803
    170 H73         5.8380   -3.1770    0.6920 hc        1 MOL      0.074669
    171 H74         4.1720   -2.5520    0.6110 hc        1 MOL      0.074669
    172 H75         5.1020   -1.8680    2.7130 hc        1 MOL      0.179430
    173 H76         5.0890   -0.4470    1.7510 hc        1 MOL      0.179430
    174 N15         4.1210   -1.8220   -2.5790 n         1 MOL     -0.038047
    175 C58         3.6520   -2.1020   -3.9340 c3        1 MOL     -0.313136
    176 H77         3.4090   -3.1620   -4.0230 h1        1 MOL      0.109042
    177 H78         2.7630   -1.5070   -4.1420 h1        1 MOL      0.109042
    178 H79         4.4350   -1.8480   -4.6500 h1        1 MOL      0.109042
    179 H80         3.8140   -0.9990   -2.0770 hn        1 MOL      0.060334
    180 Ca1        10.2600   -1.0860    2.5470 Ca        1 MOL      1.744506
    181 O27        11.5630   -3.3420    2.0580 oh        1 MOL     -0.832298
    182 H81        12.5220   -3.3910    2.0790 ho        1 MOL      0.370736
    183 H82        11.2880   -4.1920    1.7220 ho        1 MOL      0.370736
    184 O28        12.8360   -0.5880    2.1190 oh        1 MOL     -0.832298
    185 H83        13.2150   -0.0500    1.4250 ho        1 MOL      0.370736
    186 H84        13.5690   -1.1340    2.4250 ho        1 MOL      0.370736
    187 O29         9.7030    1.1450    4.0040 oh        1 MOL     -0.832298
    188 H85        10.0330    2.0370    3.8370 ho        1 MOL      0.370736
    189 H86         8.8360    1.2900    4.4000 ho        1 MOL      0.370736
    190 O30        10.9490   -1.2350   -0.0470 oh        1 MOL     -0.832298
    191 H87        11.7110   -1.7850   -0.2150 ho        1 MOL      0.370736
    192 H88        10.7860   -0.7950   -0.8810 ho        1 MOL      0.370736
    193 O31        10.4270    1.2280    1.1990 oh        1 MOL     -0.832298
    194 H89        10.1700    1.1790    0.2750 ho        1 MOL      0.370736
    195 H90        10.6250    2.1520    1.3360 ho        1 MOL      0.370736
    196 O32         8.9180   -1.6610    4.7540 oh        1 MOL     -0.832298
    197 H91         9.0690   -1.8250    5.6860 ho        1 MOL      0.370736
    198 H92         8.0920   -1.1730    4.7310 ho        1 MOL      0.370736
    199 O33        11.9660   -1.8840    4.8520 oh        1 MOL     -0.832298
    200 H93        11.7340   -1.4150    5.6500 ho        1 MOL      0.370736
    201 H94        12.9290   -1.8650    4.8370 ho        1 MOL      0.370736
@<TRIPOS>BOND
     1    1    2 1   
     2    1    4 1   
     3    1    5 1   
     4    1    6 1   
     5    2    3 2   
     6    2    7 1   
     7    7    8 1   
     8    7   15 1   
     9    8    9 1   
    10    8   11 1   
    11    8   16 1   
    12    9   10 2   
    13    9   19 1   
    14   11   12 1   
    15   11   17 1   
    16   11   18 1   
    17   12   13 1   
    18   12   14 1   
    19   19   20 1   
    20   19   27 1   
    21   20   21 1   
    22   20   23 1   
    23   20   28 1   
    24   21   22 2   
    25   21   38 1   
    26   23   24 1   
    27   23   25 1   
    28   23   29 1   
    29   24   26 1   
    30   24   30 1   
    31   24   31 1   
    32   25   32 1   
    33   25   33 1   
    34   25   34 1   
    35   26   35 1   
    36   26   36 1   
    37   26   37 1   
    38   38   39 1   
    39   38   46 1   
    40   39   40 1   
    41   39   42 1   
    42   39   47 1   
    43   40   41 2   
    44   40   50 1   
    45   42   43 1   
    46   42   48 1   
    47   42   49 1   
    48   43   44 1   
    49   43   45 1   
    50   50   51 1   
    51   50   54 1   
    52   51   52 1   
    53   51   55 1   
    54   51   56 1   
    55   52   53 2   
    56   52   57 1   
    57   57   58 1   
    58   57   65 1   
    59   58   59 1   
    60   58   61 1   
    61   58   66 1   
    62   59   60 2   
    63   59   69 1   
    64   61   62 1   
    65   61   67 1   
    66   61   68 1   
    67   62   63 1   
    68   62   64 1   
    69   69   70 1   
    70   69   73 1   
    71   70   71 1   
    72   70   74 1   
    73   70   75 1   
    74   71   72 2   
    75   71   76 1   
    76   76   77 1   
    77   76   85 1   
    78   77   78 1   
    79   77   80 1   
    80   77   86 1   
    81   78   79 2   
    82   78   93 1   
    83   80   81 1   
    84   80   87 1   
    85   80   88 1   
    86   81   82 1   
    87   81   89 1   
    88   81   90 1   
    89   82   83 1   
    90   82   84 2   
    91   83   91 1   
    92   83   92 1   
    93   93   94 1   
    94   93  100 1   
    95   94   95 1   
    96   94   97 1   
    97   94  101 1   
    98   95   96 2   
    99   95  109 1   
   100   97   98 1   
   101   97   99 1   
   102   97  102 1   
   103   98  103 1   
   104   98  104 1   
   105   98  105 1   
   106   99  106 1   
   107   99  107 1   
   108   99  108 1   
   109  109  110 1   
   110  109  117 1   
   111  110  111 1   
   112  110  113 1   
   113  110  118 1   
   114  111  112 2   
   115  111  123 1   
   116  113  114 1   
   117  113  119 1   
   118  113  120 1   
   119  114  115 1   
   120  114  116 2   
   121  115  121 1   
   122  115  122 1   
   123  123  124 1   
   124  123  135 1   
   125  124  125 1   
   126  124  127 1   
   127  124  136 1   
   128  125  126 2   
   129  125  144 1   
   130  127  128 1   
   131  127  137 1   
   132  127  138 1   
   133  128  129 ar  
   134  128  130 ar  
   135  129  131 ar  
   136  129  139 1   
   137  130  132 ar  
   138  130  140 1   
   139  131  133 ar  
   140  131  141 1   
   141  132  133 ar  
   142  132  142 1   
   143  133  134 1   
   144  134  143 1   
   145  144  145 1   
   146  144  153 1   
   147  145  146 1   
   148  145  148 1   
   149  145  154 1   
   150  146  147 2   
   151  146  159 1   
   152  148  149 1   
   153  148  155 1   
   154  148  156 1   
   155  149  150 1   
   156  149  157 1   
   157  149  158 1   
   158  150  151 1   
   159  150  152 1   
   160  159  160 1   
   161  159  168 1   
   162  160  161 1   
   163  160  163 1   
   164  160  169 1   
   165  161  162 2   
   166  161  174 1   
   167  163  164 1   
   168  163  170 1   
   169  163  171 1   
   170  164  165 1   
   171  164  172 1   
   172  164  173 1   
   173  165  166 1   
   174  165  167 1   
   175  174  175 1   
   176  174  179 1   
   177  175  176 1   
   178  175  177 1   
   179  175  178 1   
   180  181  182 1   
   181  181  183 1   
   182  184  185 1   
   183  184  186 1   
   184  187  188 1   
   185  187  189 1   
   186  190  191 1   
   187  190  192 1   
   188  193  194 1   
   189  193  195 1   
   190  196  197 1   
   191  196  198 1   
   192  199  200 1   
   193  199  201 1   
@<TRIPOS>SUBSTRUCTURE
     1 MOL         1 TEMP              0 ****  ****    0 ROOT
