@<TRIPOS>MOLECULE
MOL
  189   185     1     0     0
SMALL
resp


@<TRIPOS>ATOM
      1 C1         12.2110    5.7320   -2.4710 c3        1 MOL     -0.473956
      2 C2         12.1240    4.5810   -1.4550 c         1 MOL      0.690858
      3 O1         13.1770    4.2060   -0.9520 o         1 MOL     -0.559832
      4 H1         12.9600    5.4940   -3.2250 hc        1 MOL      0.127467
      5 H2         11.2420    5.8680   -2.9520 hc        1 MOL      0.127467
      6 H3         12.4930    6.6510   -1.9560 hc        1 MOL      0.127467
      7 N1         11.0020    4.1220   -1.0960 n         1 MOL     -0.393484
      8 C3         10.8480    3.1290   -0.0460 c3        1 MOL     -0.362496
      9 C4          9.5220    2.3430   -0.2000 c         1 MOL      0.719222
     10 O2          8.3790    2.8650   -0.3300 o         1 MOL     -0.645102
     11 C5         10.7200    3.7920    1.3530 c3        1 MOL     -0.040242
     12 C6          9.9230    5.1230    1.3560 c         1 MOL      0.629887
     13 O3          8.6930    5.1230    1.4230 o         1 MOL     -0.656722
     14 O4         10.6010    6.1850    1.4090 o         1 MOL     -0.656722
     15 H4         10.2140    4.4840   -1.6210 hn        1 MOL      0.232134
     16 H5         11.6640    2.4160    0.0680 h1        1 MOL      0.170844
     17 H6         11.7750    3.9010    1.6270 hc        1 MOL      0.083528
     18 H7         10.3730    3.0880    2.1100 hc        1 MOL      0.083528
     19 N2          9.6470    1.0200   -0.0550 n         1 MOL     -0.549424
     20 C7          8.5400    0.0660   -0.2240 c3        1 MOL      0.069873
     21 C8          7.6450   -0.1660    1.0120 c         1 MOL      0.642601
     22 O5          8.0850   -0.7660    1.9890 o         1 MOL     -0.566977
     23 C9          8.9980   -1.2350   -0.8760 c3        1 MOL     -0.153603
     24 C10         7.9150   -1.9680   -1.5740 c3        1 MOL     -0.015466
     25 C11         8.3360   -3.3370   -2.1710 c3        1 MOL      0.214716
     26 C12         7.1710   -4.0840   -2.7790 c3        1 MOL     -0.348370
     27 N3          6.5460   -3.2780   -3.7730 n4        1 MOL     -0.083972
     28 H8         10.6010    0.6750    0.0330 hn        1 MOL      0.327497
     29 H9          7.8700    0.5720   -0.9090 h1        1 MOL      0.099579
     30 H10         9.4710   -1.8800   -0.1280 hc        1 MOL      0.059986
     31 H11         9.7810   -1.1400   -1.6250 hc        1 MOL      0.059986
     32 H12         7.5540   -1.3040   -2.3700 hc        1 MOL     -0.008647
     33 H13         7.1120   -2.0790   -0.8400 hc        1 MOL     -0.008647
     34 H14         8.7170   -4.0310   -1.4200 hc        1 MOL      0.020462
     35 H15         9.1900   -3.2640   -2.8550 hc        1 MOL      0.020462
     36 H16         6.3140   -4.2560   -2.1250 hx        1 MOL      0.177615
     37 H17         7.5760   -5.0160   -3.1730 hx        1 MOL      0.177615
     38 H18         6.3120   -2.3770   -3.3820 hn        1 MOL      0.223000
     39 H19         7.1400   -3.0470   -4.5560 hn        1 MOL      0.223000
     40 H20         5.6500   -3.5840   -4.1380 hn        1 MOL      0.223000
     41 N4          6.3840    0.1510    0.8390 n         1 MOL     -0.343763
     42 C13         5.2450   -0.0370    1.7490 c3        1 MOL      0.011438
     43 C14         3.9620   -0.2060    0.9430 c         1 MOL      0.367449
     44 O6          3.8750    0.2770   -0.2250 o         1 MOL     -0.492668
     45 C15         5.1630    1.1440    2.6940 c3        1 MOL      0.277642
     46 C16         5.4620    2.5320    2.1340 c         1 MOL      0.669767
     47 O7          6.4790    3.1380    2.4530 o         1 MOL     -0.781715
     48 O8          4.6290    3.0240    1.3130 o         1 MOL     -0.781715
     49 H21         6.0620    0.6190    0.0050 hn        1 MOL      0.136072
     50 H22         5.4670   -0.8220    2.4860 h1        1 MOL      0.073392
     51 H23         5.8980    0.9780    3.4920 hc        1 MOL     -0.039110
     52 H24         4.2020    1.1120    3.2090 hc        1 MOL     -0.039110
     53 N5          2.9070   -0.8330    1.4870 n         1 MOL     -0.309152
     54 C17         2.9640   -1.6560    2.6680 c3        1 MOL      0.021145
     55 C18         3.1390   -3.1680    2.3640 c         1 MOL      0.471468
     56 O9          3.7040   -3.5490    1.3480 o         1 MOL     -0.551035
     57 H25         2.0980   -0.9700    0.9120 hn        1 MOL      0.271201
     58 H26         1.9460   -1.6360    3.0710 h1        1 MOL      0.044295
     59 H27         3.6600   -1.3520    3.4420 h1        1 MOL      0.044295
     60 N6          2.7880   -4.0230    3.3630 n         1 MOL     -0.262287
     61 C19         3.0710   -5.5040    3.4310 c3        1 MOL     -0.076871
     62 C20         2.1960   -6.2590    2.3970 c         1 MOL      0.387703
     63 O10         2.5460   -7.2570    1.8230 o         1 MOL     -0.537245
     64 C21         2.7440   -6.0780    4.8750 c3        1 MOL     -0.154665
     65 C22         1.3550   -5.7850    5.4170 c         1 MOL      0.711974
     66 O11         0.5930   -4.9720    4.8920 o         1 MOL     -0.674061
     67 O12         0.9610   -6.4610    6.3530 o         1 MOL     -0.674061
     68 H28         2.2560   -3.6560    4.1430 hn        1 MOL      0.174334
     69 H29         4.1390   -5.6930    3.2970 h1        1 MOL      0.097342
     70 H30         3.4590   -5.6210    5.5570 hc        1 MOL      0.065104
     71 H31         2.9080   -7.1510    4.9500 hc        1 MOL      0.065104
     72 N7          1.0030   -5.8160    2.1280 n         1 MOL     -0.074163
     73 C23         0.0650   -6.3960    1.2040 c3        1 MOL     -0.004194
     74 C24        -0.1260   -5.7210   -0.1400 c         1 MOL      0.613674
     75 O13        -0.6890   -6.2880   -1.0660 o         1 MOL     -0.566758
     76 H32         0.7400   -4.8880    2.4470 hn        1 MOL      0.151384
     77 H33        -0.9100   -6.3740    1.6760 h1        1 MOL      0.052187
     78 H34         0.2870   -7.4310    0.9150 h1        1 MOL      0.052187
     79 N8          0.3610   -4.4620   -0.3570 n         1 MOL     -0.554701
     80 C25         0.5820   -3.7500   -1.6290 c3        1 MOL     -0.024175
     81 C26         0.2740   -2.2430   -1.5420 c         1 MOL      0.341207
     82 O14         0.4900   -1.6900   -0.4510 o         1 MOL     -0.448241
     83 C27         2.0930   -3.8140   -1.9830 c3        1 MOL      0.432352
     84 C28         2.5910   -5.1870   -2.4840 c3        1 MOL     -0.385145
     85 O15         2.3120   -2.9460   -3.1290 oh        1 MOL     -0.633091
     86 H35         0.6410   -3.9150    0.4410 hn        1 MOL      0.300572
     87 H36         0.0650   -4.3090   -2.4100 h1        1 MOL      0.113317
     88 H37         2.6950   -3.4910   -1.1320 h1        1 MOL     -0.023527
     89 H38         3.1870   -2.5780   -2.9690 ho        1 MOL      0.334779
     90 H39         3.5350   -5.1110   -3.0210 hc        1 MOL      0.104226
     91 H40         2.7020   -5.8520   -1.6300 hc        1 MOL      0.104226
     92 H41         1.8750   -5.6230   -3.1730 hc        1 MOL      0.104226
     93 N9         -0.1850   -1.5750   -2.6240 n         1 MOL     -0.080879
     94 C29        -0.5380   -0.1420   -2.5450 c3        1 MOL     -0.197252
     95 C30        -1.8990   -0.0500   -1.8930 c         1 MOL      0.614341
     96 O16        -2.1410    1.0070   -1.3400 o         1 MOL     -0.501552
     97 C31        -0.4660    0.4540   -3.9940 c3        1 MOL      0.140905
     98 C32         0.9780    0.3140   -4.5010 c3        1 MOL     -0.039740
     99 C33        -0.9140    1.8180   -4.1540 c3        1 MOL     -0.261035
    100 C34         2.1040    1.0180   -3.7040 c3        1 MOL     -0.048505
    101 H42        -0.5340   -2.1240   -3.4010 hn        1 MOL      0.192639
    102 H43         0.1680    0.4090   -1.9280 h1        1 MOL      0.145095
    103 H44        -1.1370   -0.1730   -4.5900 hc        1 MOL      0.001869
    104 H45         1.0640    0.7490   -5.4980 hc        1 MOL     -0.000491
    105 H46         1.2560   -0.7330   -4.6400 hc        1 MOL     -0.000491
    106 H47        -0.7140    2.1880   -5.1540 hc        1 MOL      0.077042
    107 H48        -1.9840    1.8630   -3.9670 hc        1 MOL      0.077042
    108 H49        -0.4140    2.4200   -3.3960 hc        1 MOL      0.077042
    109 H50         3.0000    1.0430   -4.3350 hc        1 MOL      0.006249
    110 H51         1.9290    2.0800   -3.5110 hc        1 MOL      0.006249
    111 H52         2.2760    0.5130   -2.7530 hc        1 MOL      0.006249
    112 N10        -2.7240   -1.1250   -1.9260 n         1 MOL     -0.462828
    113 C35        -3.9610   -1.1110   -1.2040 c3        1 MOL     -0.041428
    114 C36        -5.1620   -1.6410   -2.0600 c         1 MOL      0.576364
    115 O17        -4.9130   -2.5280   -2.8310 o         1 MOL     -0.515388
    116 C37        -3.8110   -1.9500    0.0880 c3        1 MOL      0.346934
    117 C38        -3.5190   -3.4270   -0.2100 c3        1 MOL     -0.427865
    118 O18        -2.7390   -1.6030    0.8730 oh        1 MOL     -0.598942
    119 H53        -2.5790   -2.0450   -2.3120 hn        1 MOL      0.246718
    120 H54        -4.0360   -0.0770   -0.8600 h1        1 MOL      0.073382
    121 H55        -4.7250   -1.9510    0.6730 h1        1 MOL     -0.008967
    122 H56        -2.7510   -2.1880    1.6350 ho        1 MOL      0.410176
    123 H57        -2.5480   -3.5890   -0.6830 hc        1 MOL      0.110140
    124 H58        -3.5290   -3.9990    0.7180 hc        1 MOL      0.110140
    125 H59        -4.2650   -3.8190   -0.9040 hc        1 MOL      0.110140
    126 N11        -6.3530   -1.2550   -1.6870 n         1 MOL     -0.435699
    127 C39        -7.5640   -1.6710   -2.3510 c3        1 MOL     -0.125072
    128 C40        -8.7130   -0.6480   -2.1530 c         1 MOL      0.762321
    129 O19        -9.2750   -0.2250   -3.1140 o         1 MOL     -0.567373
    130 C41        -7.9830   -3.0480   -1.9340 c3        1 MOL      0.315084
    131 C42        -9.1180   -3.7290   -2.7570 c3        1 MOL     -0.424255
    132 O20        -8.4090   -2.9610   -0.5690 oh        1 MOL     -0.659921
    133 H60        -6.3870   -0.5970   -0.9250 hn        1 MOL      0.251316
    134 H61        -7.4160   -1.7350   -3.4350 h1        1 MOL      0.114329
    135 H62        -7.1410   -3.7470   -1.9840 h1        1 MOL      0.060177
    136 H63        -8.3610   -3.8130   -0.1230 ho        1 MOL      0.417532
    137 H64        -8.7500   -3.9150   -3.7660 hc        1 MOL      0.112711
    138 H65        -9.3640   -4.6760   -2.2780 hc        1 MOL      0.112711
    139 H66       -10.0640   -3.1860   -2.7750 hc        1 MOL      0.112711
    140 N12        -8.8620   -0.1570   -0.9050 n         1 MOL     -0.583464
    141 C43        -9.8400    0.9720   -0.5980 c3        1 MOL      0.019999
    142 C44        -9.3720    1.6140    0.7290 c         1 MOL      0.388922
    143 O21        -9.1430    0.8980    1.7340 o         1 MOL     -0.492192
    144 C45       -11.2500    0.3720   -0.3770 c3        1 MOL     -0.121212
    145 C46       -12.4780    1.3710   -0.3220 c3        1 MOL     -0.050787
    146 C47       -13.8040    0.6600   -0.0840 c3        1 MOL      0.023285
    147 C48       -14.9200    1.6900   -0.1540 c3        1 MOL      0.108491
    148 N13       -16.2610    1.0630    0.0560 n4        1 MOL     -0.378542
    149 H67        -8.4340   -0.6560   -0.1450 hn        1 MOL      0.335994
    150 H68        -9.8340    1.7110   -1.4090 h1        1 MOL      0.079658
    151 H69       -11.1730   -0.1410    0.5840 hc        1 MOL      0.084468
    152 H70       -11.3840   -0.3440   -1.1790 hc        1 MOL      0.084468
    153 H71       -12.4830    1.8370   -1.3090 hc        1 MOL      0.021348
    154 H72       -12.1960    2.1010    0.4370 hc        1 MOL      0.021348
    155 H73       -13.8150   -0.0100    0.7690 hc        1 MOL      0.017100
    156 H74       -14.0240    0.0900   -0.9870 hc        1 MOL      0.017100
    157 H75       -14.8590    2.1870   -1.1230 hx        1 MOL      0.069234
    158 H76       -14.8440    2.4130    0.6640 hx        1 MOL      0.069234
    159 H77       -16.2370    0.6180    0.9590 hn        1 MOL      0.307594
    160 H78       -16.9660    1.7830    0.1350 hn        1 MOL      0.307594
    161 H79       -16.3770    0.3710   -0.6640 hn        1 MOL      0.307594
    162 N14        -9.3710    2.9150    0.7460 n         1 MOL     -0.234463
    163 C49        -9.0520    3.7020    1.9570 c3        1 MOL      0.062356
    164 C50        -7.5570    3.7860    2.2080 c         1 MOL      0.438750
    165 O22        -7.0860    3.9120    3.3510 o         1 MOL     -0.526090
    166 C51        -9.6880    5.0970    1.8390 c3        1 MOL      0.111736
    167 C52       -11.2090    4.9840    2.1140 c3        1 MOL     -0.313909
    168 C53       -11.9300    6.3230    1.9190 c         1 MOL      0.657004
    169 O23       -13.0940    6.3880    2.4030 o         1 MOL     -0.661251
    170 O24       -11.4670    7.2840    1.1890 o         1 MOL     -0.661251
    171 H80        -9.8470    3.3890   -0.0170 hn        1 MOL      0.251925
    172 H81        -9.4250    3.1370    2.8170 h1        1 MOL      0.068287
    173 H82        -9.4710    5.4950    0.8460 hc        1 MOL      0.020660
    174 H83        -9.2090    5.8480    2.4680 hc        1 MOL      0.020660
    175 H84       -11.3520    4.5270    3.0900 hc        1 MOL      0.059923
    176 H85       -11.5340    4.2480    1.3840 hc        1 MOL      0.059923
    177 N15        -6.6330    3.8330    1.2260 n         1 MOL     -0.436428
    178 C54        -6.7380    4.5250   -0.0570 c3        1 MOL      0.059260
    179 H86        -5.9380    4.1900   -0.7170 h1        1 MOL      0.017826
    180 H87        -7.7020    4.3000   -0.5130 h1        1 MOL      0.017826
    181 H88        -6.6520    5.6000    0.1020 h1        1 MOL      0.017826
    182 H89        -5.6880    3.7210    1.5510 hn        1 MOL      0.317869
    183 Ca1         6.4770    4.6240    0.2000 Ca        1 MOL      1.771829
    184 O25         7.3840    7.1800    0.2860 oh        1 MOL     -0.957837
    185 H90         8.3170    7.1160    0.4780 ho        1 MOL      0.449378
    186 H91         7.2550    8.0670   -0.0310 ho        1 MOL      0.449378
    187 O26         5.7550    2.5460   -1.4950 oh        1 MOL     -0.957837
    188 H92         6.1360    2.3220   -2.3480 ho        1 MOL      0.449378
    189 H93         4.8890    2.1510   -1.5080 ho        1 MOL      0.449378
@<TRIPOS>BOND
     1    1    2 1   
     2    1    4 1   
     3    1    5 1   
     4    1    6 1   
     5    2    3 2   
     6    2    7 1   
     7    7    8 1   
     8    7   15 1   
     9    8    9 1   
    10    8   11 1   
    11    8   16 1   
    12    9   10 2   
    13    9   19 1   
    14   11   12 1   
    15   11   17 1   
    16   11   18 1   
    17   12   13 1   
    18   12   14 1   
    19   19   20 1   
    20   19   28 1   
    21   20   21 1   
    22   20   23 1   
    23   20   29 1   
    24   21   22 2   
    25   21   41 1   
    26   23   24 1   
    27   23   30 1   
    28   23   31 1   
    29   24   25 1   
    30   24   32 1   
    31   24   33 1   
    32   25   26 1   
    33   25   34 1   
    34   25   35 1   
    35   26   27 1   
    36   26   36 1   
    37   26   37 1   
    38   27   38 1   
    39   27   39 1   
    40   27   40 1   
    41   41   42 1   
    42   41   49 1   
    43   42   43 1   
    44   42   45 1   
    45   42   50 1   
    46   43   44 2   
    47   43   53 1   
    48   45   46 1   
    49   45   51 1   
    50   45   52 1   
    51   46   47 1   
    52   46   48 1   
    53   53   54 1   
    54   53   57 1   
    55   54   55 1   
    56   54   58 1   
    57   54   59 1   
    58   55   56 2   
    59   55   60 1   
    60   60   61 1   
    61   60   68 1   
    62   61   62 1   
    63   61   64 1   
    64   61   69 1   
    65   62   63 2   
    66   62   72 1   
    67   64   65 1   
    68   64   70 1   
    69   64   71 1   
    70   65   66 1   
    71   65   67 1   
    72   72   73 1   
    73   72   76 1   
    74   73   74 1   
    75   73   77 1   
    76   73   78 1   
    77   74   75 2   
    78   74   79 1   
    79   79   80 1   
    80   79   86 1   
    81   80   81 1   
    82   80   83 1   
    83   80   87 1   
    84   81   82 2   
    85   81   93 1   
    86   83   84 1   
    87   83   85 1   
    88   83   88 1   
    89   84   90 1   
    90   84   91 1   
    91   84   92 1   
    92   85   89 1   
    93   93   94 1   
    94   93  101 1   
    95   94   95 1   
    96   94   97 1   
    97   94  102 1   
    98   95   96 2   
    99   95  112 1   
   100   97   98 1   
   101   97   99 1   
   102   97  103 1   
   103   98  100 1   
   104   98  104 1   
   105   98  105 1   
   106   99  106 1   
   107   99  107 1   
   108   99  108 1   
   109  100  109 1   
   110  100  110 1   
   111  100  111 1   
   112  112  113 1   
   113  112  119 1   
   114  113  114 1   
   115  113  116 1   
   116  113  120 1   
   117  114  115 2   
   118  114  126 1   
   119  116  117 1   
   120  116  118 1   
   121  116  121 1   
   122  117  123 1   
   123  117  124 1   
   124  117  125 1   
   125  118  122 1   
   126  126  127 1   
   127  126  133 1   
   128  127  128 1   
   129  127  130 1   
   130  127  134 1   
   131  128  129 2   
   132  128  140 1   
   133  130  131 1   
   134  130  132 1   
   135  130  135 1   
   136  131  137 1   
   137  131  138 1   
   138  131  139 1   
   139  132  136 1   
   140  140  141 1   
   141  140  149 1   
   142  141  142 1   
   143  141  144 1   
   144  141  150 1   
   145  142  143 2   
   146  142  162 1   
   147  144  145 1   
   148  144  151 1   
   149  144  152 1   
   150  145  146 1   
   151  145  153 1   
   152  145  154 1   
   153  146  147 1   
   154  146  155 1   
   155  146  156 1   
   156  147  148 1   
   157  147  157 1   
   158  147  158 1   
   159  148  159 1   
   160  148  160 1   
   161  148  161 1   
   162  162  163 1   
   163  162  171 1   
   164  163  164 1   
   165  163  166 1   
   166  163  172 1   
   167  164  165 2   
   168  164  177 1   
   169  166  167 1   
   170  166  173 1   
   171  166  174 1   
   172  167  168 1   
   173  167  175 1   
   174  167  176 1   
   175  168  169 1   
   176  168  170 1   
   177  177  178 1   
   178  177  182 1   
   179  178  179 1   
   180  178  180 1   
   181  178  181 1   
   182  184  185 1   
   183  184  186 1   
   184  187  188 1   
   185  187  189 1   
@<TRIPOS>SUBSTRUCTURE
     1 MOL         1 TEMP              0 ****  ****    0 ROOT
