@<TRIPOS>MOLECULE
MOL
  181   177     1     0     0
SMALL
resp


@<TRIPOS>ATOM
      1 C1          6.9000    2.9910    5.4040 c3        1 MOL     -0.366574
      2 C2          6.1440    2.5840    4.1710 c         1 MOL      0.718851
      3 O1          4.9570    2.8230    4.0190 o         1 MOL     -0.585640
      4 H1          7.1850    2.1010    5.9660 hc        1 MOL      0.090992
      5 H2          7.7960    3.5410    5.1170 hc        1 MOL      0.090992
      6 H3          6.2680    3.6250    6.0260 hc        1 MOL      0.090992
      7 N1          6.7500    2.0150    3.1060 n         1 MOL     -0.468952
      8 C3          8.1970    1.6830    2.8380 c3        1 MOL     -0.052305
      9 C4          8.4510    0.1960    2.7710 c         1 MOL      0.534376
     10 O2          7.7290   -0.5270    3.4670 o         1 MOL     -0.461828
     11 C5          8.6260    2.4470    1.5760 c3        1 MOL     -0.072287
     12 C6          7.7710    2.1130    0.3870 c         1 MOL      0.608055
     13 O3          6.8580    2.9230    0.0010 o         1 MOL     -0.688053
     14 O4          7.9880    1.0760   -0.2710 o         1 MOL     -0.688053
     15 H4          6.0880    1.7590    2.3840 hn        1 MOL      0.276969
     16 H5          8.7540    2.0410    3.7080 h1        1 MOL      0.092124
     17 H6          9.6840    2.3460    1.3760 hc        1 MOL      0.017485
     18 H7          8.6240    3.5310    1.6820 hc        1 MOL      0.017485
     19 N2          9.5010   -0.2330    2.0810 n         1 MOL     -0.552559
     20 C7          9.9130   -1.6500    1.8010 c3        1 MOL      0.352983
     21 C8          8.8480   -2.6360    1.1930 c         1 MOL      0.354517
     22 O5          8.9590   -3.8430    1.3730 o         1 MOL     -0.480790
     23 C9         10.5500   -2.2170    3.0400 c3        1 MOL     -0.351272
     24 H8         10.0210    0.4470    1.5370 hn        1 MOL      0.286473
     25 H9         10.7770   -1.6180    1.1310 h1        1 MOL      0.007719
     26 H10        11.0420   -3.1260    2.6830 hc        1 MOL      0.089765
     27 H11        11.2080   -1.5300    3.5590 hc        1 MOL      0.089765
     28 H12         9.7180   -2.6460    3.6040 hc        1 MOL      0.089765
     29 N3          7.7800   -2.0740    0.5600 n         1 MOL     -0.396477
     30 C10         6.6960   -2.8620    0.1680 c3        1 MOL      0.294056
     31 C11         6.3250   -2.5260   -1.2680 c         1 MOL      0.443735
     32 O6          6.2930   -1.3900   -1.6880 o         1 MOL     -0.549683
     33 C12         5.4750   -2.6670    1.1210 c3        1 MOL     -0.215322
     34 C13         5.1110   -1.2210    1.4960 c         1 MOL      0.600644
     35 O7          4.2380   -0.9920    2.4080 o         1 MOL     -0.639590
     36 O8          5.5060   -0.2690    0.8060 o         1 MOL     -0.639590
     37 H13         7.6140   -1.0900    0.6930 hn        1 MOL      0.185612
     38 H14         6.9980   -3.9010    0.2410 h1        1 MOL     -0.026146
     39 H15         5.7830   -3.0880    2.0800 hc        1 MOL      0.062614
     40 H16         4.5830   -3.2570    0.9040 hc        1 MOL      0.062614
     41 N4          6.0410   -3.5820   -2.0910 n         1 MOL     -0.348300
     42 C14         5.6080   -3.4560   -3.4930 c3        1 MOL     -0.269079
     43 C15         4.2280   -2.7490   -3.4850 c         1 MOL      0.660217
     44 O9          4.0940   -1.8480   -4.3030 o         1 MOL     -0.576984
     45 H17         6.0980   -4.5260   -1.7250 hn        1 MOL      0.264837
     46 H18         5.3960   -4.4730   -3.8220 h1        1 MOL      0.148032
     47 H19         6.3700   -3.0160   -4.1280 h1        1 MOL      0.148032
     48 N5          3.3180   -3.1240   -2.5280 n         1 MOL     -0.509304
     49 C16         2.0840   -2.3870   -2.3220 c3        1 MOL      0.095956
     50 C17         2.3500   -0.8630   -1.9630 c         1 MOL      0.312573
     51 O10         3.3330   -0.4770   -1.3340 o         1 MOL     -0.363550
     52 C18         1.3700   -3.0480   -1.1690 c3        1 MOL     -0.309910
     53 C19         0.7610   -4.3790   -1.4670 c         1 MOL      0.766445
     54 N6          0.7280   -5.2640   -0.4320 n         1 MOL     -0.870073
     55 O11         0.3440   -4.7340   -2.5350 o         1 MOL     -0.533437
     56 H20         3.6440   -3.8070   -1.8650 hn        1 MOL      0.297333
     57 H21         1.3910   -2.4480   -3.1630 h1        1 MOL      0.094616
     58 H22         0.5510   -2.3480   -1.0230 hc        1 MOL      0.074489
     59 H23         2.1200   -3.0620   -0.3780 hc        1 MOL      0.074489
     60 H24         1.0220   -4.8820    0.4620 hn        1 MOL      0.392051
     61 H25         0.2940   -6.1680   -0.5310 hn        1 MOL      0.392051
     62 N7          1.4200    0.0260   -2.3350 n         1 MOL     -0.399452
     63 C20         1.4840    1.5010   -2.1380 c3        1 MOL      0.123163
     64 C21         0.9010    2.3060   -3.3390 c         1 MOL      0.533793
     65 O12         1.2360    2.0990   -4.4720 o         1 MOL     -0.574247
     66 H26         0.6690   -0.2900   -2.9350 hn        1 MOL      0.310165
     67 H27         2.5520    1.7010   -2.0980 h1        1 MOL      0.055642
     68 H28         1.0280    1.8730   -1.2240 h1        1 MOL      0.055642
     69 N8          0.1120    3.3440   -3.1440 n         1 MOL     -0.466433
     70 C22        -0.1260    4.0710   -1.8360 c3        1 MOL     -0.182254
     71 C23        -1.4590    3.6740   -1.2540 c         1 MOL      0.529042
     72 O13        -2.5230    3.6270   -1.9540 o         1 MOL     -0.593818
     73 C24        -0.1560    5.5650   -2.1970 c3        1 MOL      0.468298
     74 C25        -0.6140    6.4460   -1.0140 c3        1 MOL     -0.300364
     75 O14         1.0840    5.9080   -2.6450 oh        1 MOL     -0.618393
     76 H29        -0.3510    3.7400   -3.9520 hn        1 MOL      0.331301
     77 H30         0.6280    3.8930   -1.0810 h1        1 MOL      0.137834
     78 H31        -0.7850    5.6750   -3.0830 h1        1 MOL     -0.031787
     79 H32         1.0130    6.0860   -3.5910 ho        1 MOL      0.373645
     80 H33        -0.2800    6.1040   -0.0350 hc        1 MOL      0.081463
     81 H34        -0.1350    7.3960   -1.2440 hc        1 MOL      0.081463
     82 H35        -1.6950    6.5420   -1.1260 hc        1 MOL      0.081463
     83 N9         -1.4910    3.4050   -0.0040 n         1 MOL     -0.211325
     84 C26        -2.6320    3.0370    0.8210 c3        1 MOL     -0.198001
     85 C27        -3.2850    4.4050    1.2680 c         1 MOL      0.444283
     86 O15        -2.6620    5.2370    1.9480 o         1 MOL     -0.562164
     87 C28        -2.2160    2.1960    2.0240 c3        1 MOL      0.304639
     88 C29        -1.8390    0.7970    1.5870 c3        1 MOL      0.039541
     89 C30        -3.4050    2.0180    3.0980 c3        1 MOL     -0.320661
     90 C31        -1.0420   -0.0290    2.6360 c3        1 MOL     -0.090047
     91 H36        -0.5880    3.4020    0.4430 hn        1 MOL      0.172964
     92 H37        -3.2470    2.4500    0.1460 h1        1 MOL      0.113965
     93 H38        -1.4090    2.7310    2.5210 hc        1 MOL     -0.019116
     94 H39        -1.3020    0.8200    0.6360 hc        1 MOL     -0.023958
     95 H40        -2.7220    0.1620    1.4820 hc        1 MOL     -0.023958
     96 H41        -4.1180    1.2680    2.7480 hc        1 MOL      0.088377
     97 H42        -3.0020    1.6570    4.0400 hc        1 MOL      0.088377
     98 H43        -3.8950    2.9620    3.2870 hc        1 MOL      0.088377
     99 H44        -0.0460    0.4270    2.6640 hc        1 MOL     -0.001199
    100 H45        -1.4070    0.1560    3.6420 hc        1 MOL     -0.001199
    101 H46        -1.1400   -1.0900    2.3930 hc        1 MOL     -0.001199
    102 N10        -4.4650    4.7870    0.7260 n         1 MOL     -0.243109
    103 C32        -5.3800    4.0250   -0.2390 c3        1 MOL     -0.078846
    104 C33        -5.9740    2.7590    0.3910 c         1 MOL      0.630012
    105 O16        -5.9800    2.5970    1.6470 o         1 MOL     -0.538354
    106 C34        -6.5150    4.9080   -0.7410 c3        1 MOL     -0.298068
    107 C35        -7.4690    5.4660    0.2970 c         1 MOL      0.799469
    108 O17        -7.1450    6.5510    0.8390 o         1 MOL     -0.735828
    109 O18        -8.6260    5.0410    0.5100 o         1 MOL     -0.735828
    110 H47        -4.7250    5.7460    0.9390 hn        1 MOL      0.232521
    111 H48        -4.8370    3.7690   -1.1430 h1        1 MOL      0.139405
    112 H49        -7.0870    4.3420   -1.4680 hc        1 MOL      0.062067
    113 H50        -6.0240    5.7300   -1.2720 hc        1 MOL      0.062067
    114 N11        -6.7090    1.9050   -0.3730 n         1 MOL     -0.695612
    115 C36        -7.2910    0.6690    0.0430 c3        1 MOL      0.322241
    116 C37        -7.5780   -0.1020   -1.2440 c         1 MOL      0.410999
    117 O19        -8.0570    0.6220   -2.1570 o         1 MOL     -0.537150
    118 C38        -8.4950    0.8760    0.9760 c3        1 MOL     -0.100125
    119 C39        -9.3410   -0.3840    1.2240 ca        1 MOL     -0.052708
    120 C40       -10.1900   -0.8650    0.1830 ca        1 MOL     -0.082617
    121 C41        -9.3270   -1.1120    2.4330 ca        1 MOL     -0.082617
    122 C42       -10.9270   -2.0420    0.4280 ca        1 MOL     -0.137340
    123 C43       -10.0030   -2.3150    2.6520 ca        1 MOL     -0.137340
    124 C44       -10.8480   -2.7760    1.6260 ca        1 MOL     -0.140058
    125 H51        -6.8610    2.0050   -1.3720 hn        1 MOL      0.332274
    126 H52        -6.5330    0.1670    0.6430 h1        1 MOL     -0.014628
    127 H53        -9.1920    1.5780    0.5070 hc        1 MOL      0.094502
    128 H54        -8.2050    1.2750    1.9490 hc        1 MOL      0.094502
    129 H55       -10.1250   -0.3250   -0.7440 ha        1 MOL      0.092526
    130 H56        -8.6740   -0.7670    3.2130 ha        1 MOL      0.092526
    131 H57       -11.5450   -2.4580   -0.3660 ha        1 MOL      0.104481
    132 H58        -9.8750   -2.8620    3.5710 ha        1 MOL      0.104481
    133 H59       -11.3680   -3.7060    1.8160 ha        1 MOL      0.104510
    134 N12        -7.3980   -1.4170   -1.3360 n         1 MOL     -0.183513
    135 C45        -6.9700   -2.3260   -0.1850 c3        1 MOL      0.627507
    136 C46        -5.5020   -2.1940    0.2090 c         1 MOL      0.243919
    137 O20        -4.8330   -1.2200   -0.0950 o         1 MOL     -0.560965
    138 C47        -7.2960   -3.7560   -0.6560 c3        1 MOL     -0.186117
    139 C48        -8.4730   -3.5150   -1.5740 c3        1 MOL      0.217962
    140 C49        -8.0580   -2.2420   -2.3440 c3        1 MOL     -0.222979
    141 H60        -7.4940   -2.0930    0.7420 h1        1 MOL     -0.182581
    142 H61        -6.5000   -4.1510   -1.2790 hc        1 MOL      0.038262
    143 H62        -7.4640   -4.3370    0.2530 hc        1 MOL      0.038262
    144 H63        -8.6990   -4.3780   -2.1830 hc        1 MOL     -0.047798
    145 H64        -9.4070   -3.3700   -1.0430 hc        1 MOL     -0.047798
    146 H65        -7.2640   -2.4640   -3.0550 h1        1 MOL      0.101875
    147 H66        -8.9300   -1.6920   -2.7050 h1        1 MOL      0.101875
    148 N13        -4.9920   -3.1830    0.8850 n         1 MOL     -0.209661
    149 C50        -3.5710   -3.2040    1.3900 c3        1 MOL      0.265930
    150 C51        -3.3300   -4.0540    2.6370 c         1 MOL      0.373151
    151 O21        -2.4370   -4.9080    2.6990 o         1 MOL     -0.546325
    152 C52        -2.6770   -3.5820    0.1810 c3        1 MOL     -0.525013
    153 C53        -2.6860   -5.0410   -0.3440 c3        1 MOL      0.273298
    154 C54        -3.9580   -5.3480   -1.1090 c         1 MOL      0.643337
    155 O22        -4.0260   -4.9120   -2.2980 o         1 MOL     -0.731516
    156 O23        -4.8980   -5.9270   -0.5710 o         1 MOL     -0.731516
    157 H67        -5.5750   -3.9520    1.1930 hn        1 MOL      0.209334
    158 H68        -3.3300   -2.1810    1.6650 h1        1 MOL      0.101788
    159 H69        -1.6250   -3.5440    0.4920 hc        1 MOL      0.152673
    160 H70        -2.8590   -2.9380   -0.6820 hc        1 MOL      0.152673
    161 H71        -2.6110   -5.8460    0.3940 hc        1 MOL     -0.092394
    162 H72        -1.8520   -5.1940   -1.0200 hc        1 MOL     -0.092394
    163 N14        -4.0110   -3.9280    3.7240 n         1 MOL     -0.314729
    164 C55        -5.0880   -2.9530    4.1100 c3        1 MOL     -0.135447
    165 H73        -6.0540   -3.3230    3.7640 h1        1 MOL      0.072993
    166 H74        -5.1100   -2.8450    5.1940 h1        1 MOL      0.072993
    167 H75        -4.8860   -1.9860    3.6510 h1        1 MOL      0.072993
    168 H76        -3.6890   -4.4660    4.5120 hn        1 MOL      0.270104
    169 Ca1         5.5350    0.9880   -1.4560 Ca        1 MOL      1.763380
    170 O24         5.1930    3.3420   -2.6630 oh        1 MOL     -0.858973
    171 H77         4.9180    4.2290   -2.4160 ho        1 MOL      0.417020
    172 H78         5.7190    3.4740   -3.4560 ho        1 MOL      0.417020
    173 O25         7.6740    1.4600   -3.2010 oh        1 MOL     -0.858973
    174 H79         7.7190    1.7030   -4.1250 ho        1 MOL      0.417020
    175 H80         8.4740    1.8220   -2.8250 ho        1 MOL      0.417020
    176 O26         4.2060    0.6250   -3.8220 oh        1 MOL     -0.858973
    177 H81         4.0830    0.9830   -4.7000 ho        1 MOL      0.417020
    178 H82         4.0250   -0.3060   -3.9110 ho        1 MOL      0.417020
    179 O27         3.5900    2.1140    0.0820 oh        1 MOL     -0.858973
    180 H83         3.3460    2.9570    0.4600 ho        1 MOL      0.417020
    181 H84         3.3370    1.4740    0.7460 ho        1 MOL      0.417020
@<TRIPOS>BOND
     1    1    2 1   
     2    1    4 1   
     3    1    5 1   
     4    1    6 1   
     5    2    3 2   
     6    2    7 1   
     7    7    8 1   
     8    7   15 1   
     9    8    9 1   
    10    8   11 1   
    11    8   16 1   
    12    9   10 2   
    13    9   19 1   
    14   11   12 1   
    15   11   17 1   
    16   11   18 1   
    17   12   13 1   
    18   12   14 1   
    19   19   20 1   
    20   19   24 1   
    21   20   21 1   
    22   20   23 1   
    23   20   25 1   
    24   21   22 2   
    25   21   29 1   
    26   23   26 1   
    27   23   27 1   
    28   23   28 1   
    29   29   30 1   
    30   29   37 1   
    31   30   31 1   
    32   30   33 1   
    33   30   38 1   
    34   31   32 2   
    35   31   41 1   
    36   33   34 1   
    37   33   39 1   
    38   33   40 1   
    39   34   35 1   
    40   34   36 1   
    41   41   42 1   
    42   41   45 1   
    43   42   43 1   
    44   42   46 1   
    45   42   47 1   
    46   43   44 2   
    47   43   48 1   
    48   48   49 1   
    49   48   56 1   
    50   49   50 1   
    51   49   52 1   
    52   49   57 1   
    53   50   51 2   
    54   50   62 1   
    55   52   53 1   
    56   52   58 1   
    57   52   59 1   
    58   53   54 1   
    59   53   55 2   
    60   54   60 1   
    61   54   61 1   
    62   62   63 1   
    63   62   66 1   
    64   63   64 1   
    65   63   67 1   
    66   63   68 1   
    67   64   65 2   
    68   64   69 1   
    69   69   70 1   
    70   69   76 1   
    71   70   71 1   
    72   70   73 1   
    73   70   77 1   
    74   71   72 2   
    75   71   83 1   
    76   73   74 1   
    77   73   75 1   
    78   73   78 1   
    79   74   80 1   
    80   74   81 1   
    81   74   82 1   
    82   75   79 1   
    83   83   84 1   
    84   83   91 1   
    85   84   85 1   
    86   84   87 1   
    87   84   92 1   
    88   85   86 2   
    89   85  102 1   
    90   87   88 1   
    91   87   89 1   
    92   87   93 1   
    93   88   90 1   
    94   88   94 1   
    95   88   95 1   
    96   89   96 1   
    97   89   97 1   
    98   89   98 1   
    99   90   99 1   
   100   90  100 1   
   101   90  101 1   
   102  102  103 1   
   103  102  110 1   
   104  103  104 1   
   105  103  106 1   
   106  103  111 1   
   107  104  105 2   
   108  104  114 1   
   109  106  107 1   
   110  106  112 1   
   111  106  113 1   
   112  107  108 1   
   113  107  109 1   
   114  114  115 1   
   115  114  125 1   
   116  115  116 1   
   117  115  118 1   
   118  115  126 1   
   119  116  117 2   
   120  116  134 1   
   121  118  119 1   
   122  118  127 1   
   123  118  128 1   
   124  119  120 ar  
   125  119  121 ar  
   126  120  122 ar  
   127  120  129 1   
   128  121  123 ar  
   129  121  130 1   
   130  122  124 ar  
   131  122  131 1   
   132  123  124 ar  
   133  123  132 1   
   134  124  133 1   
   135  134  135 1   
   136  134  140 1   
   137  135  136 1   
   138  135  138 1   
   139  135  141 1   
   140  136  137 2   
   141  136  148 1   
   142  138  139 1   
   143  138  142 1   
   144  138  143 1   
   145  139  140 1   
   146  139  144 1   
   147  139  145 1   
   148  140  146 1   
   149  140  147 1   
   150  148  149 1   
   151  148  157 1   
   152  149  150 1   
   153  149  152 1   
   154  149  158 1   
   155  150  151 2   
   156  150  163 1   
   157  152  153 1   
   158  152  159 1   
   159  152  160 1   
   160  153  154 1   
   161  153  161 1   
   162  153  162 1   
   163  154  155 1   
   164  154  156 1   
   165  163  164 1   
   166  163  168 1   
   167  164  165 1   
   168  164  166 1   
   169  164  167 1   
   170  170  171 1   
   171  170  172 1   
   172  173  174 1   
   173  173  175 1   
   174  176  177 1   
   175  176  178 1   
   176  179  180 1   
   177  179  181 1   
@<TRIPOS>SUBSTRUCTURE
     1 MOL         1 TEMP              0 ****  ****    0 ROOT
