@<TRIPOS>MOLECULE
MOL
  192   187     1     0     0
SMALL
resp


@<TRIPOS>ATOM
      1 C1          9.1720    0.2470    2.0070 c3        1 MOL     -0.552308
      2 C2          7.9700   -0.0170    1.0980 c         1 MOL      0.828641
      3 O1          6.8500   -0.1220    1.5720 o         1 MOL     -0.687506
      4 H1          9.1140    1.2620    2.3990 hc        1 MOL      0.134367
      5 H2          9.1660   -0.4630    2.8340 hc        1 MOL      0.134367
      6 H3         10.0930    0.1310    1.4340 hc        1 MOL      0.134367
      7 N1          8.2410   -0.0270   -0.1710 n         1 MOL     -0.558090
      8 C3          7.2370   -0.2220   -1.2630 c3        1 MOL      0.081010
      9 C4          6.7140   -1.6420   -1.4500 c         1 MOL      0.598686
     10 O2          6.3390   -2.0140   -2.5830 o         1 MOL     -0.507802
     11 C5          7.8830    0.3080   -2.5210 c3        1 MOL     -0.271187
     12 C6          8.5570    1.6440   -2.3370 c         1 MOL      0.791697
     13 O3          9.8030    1.7360   -2.2890 o         1 MOL     -0.669660
     14 O4          7.8620    2.6860   -2.2000 o         1 MOL     -0.669660
     15 H4          9.2030    0.0700   -0.4470 hn        1 MOL      0.298679
     16 H5          6.3160    0.3210   -1.0270 h1        1 MOL      0.129624
     17 H6          7.1750    0.3540   -3.3540 hc        1 MOL      0.054844
     18 H7          8.6770   -0.3940   -2.7790 hc        1 MOL      0.054844
     19 N2          6.6500   -2.4030   -0.3610 n         1 MOL     -0.518515
     20 C7          6.0770   -3.7560   -0.2520 c3        1 MOL      0.069386
     21 C8          4.5360   -3.8980   -0.5210 c         1 MOL      0.485315
     22 O5          4.1430   -4.8610   -1.1760 o         1 MOL     -0.555475
     23 C9          6.3620   -4.3640    1.1620 c3        1 MOL     -0.079439
     24 C10         7.8130   -4.5550    1.3710 c3        1 MOL      0.067421
     25 C11         8.1440   -5.3780    2.6390 c3        1 MOL      0.143663
     26 C12         9.5860   -5.2030    3.0760 c3        1 MOL     -0.015549
     27 N3          9.6880   -5.6620    4.5090 n4        1 MOL     -0.139821
     28 H8          6.8480   -1.8400    0.4580 hn        1 MOL      0.239965
     29 H9          6.5550   -4.3790   -1.0090 h1        1 MOL      0.096504
     30 H10         5.8340   -5.3110    1.2360 hc        1 MOL      0.032169
     31 H11         5.9440   -3.7190    1.9290 hc        1 MOL      0.032169
     32 H12         8.3060   -3.5940    1.5070 hc        1 MOL     -0.016477
     33 H13         8.3020   -5.0590    0.5370 hc        1 MOL     -0.016477
     34 H14         7.9720   -6.4500    2.5040 hc        1 MOL     -0.019733
     35 H15         7.4520   -5.0420    3.4020 hc        1 MOL     -0.019733
     36 H16         9.9410   -4.1790    2.9450 hx        1 MOL      0.072711
     37 H17        10.1490   -5.9290    2.4970 hx        1 MOL      0.072711
     38 H18         9.0710   -5.1790    5.1530 hn        1 MOL      0.208731
     39 H19         9.3700   -6.6230    4.5050 hn        1 MOL      0.208731
     40 H20        10.6200   -5.5890    4.9050 hn        1 MOL      0.208731
     41 N4          3.6070   -2.9950   -0.1580 n         1 MOL     -0.300130
     42 C13         3.7630   -1.8580    0.8150 c3        1 MOL     -0.084635
     43 C14         3.8750   -0.4500    0.1860 c         1 MOL      0.011022
     44 O6          3.9060   -0.3520   -1.0120 o         1 MOL     -0.327932
     45 C15         2.5700   -2.0660    1.8060 c3        1 MOL     -0.274497
     46 C16         1.2200   -2.1820    1.1270 c         1 MOL      0.656785
     47 O7          1.0580   -1.7190   -0.0570 o         1 MOL     -0.638226
     48 O8          0.3310   -2.8000    1.7870 o         1 MOL     -0.638226
     49 H21         2.7250   -3.1430   -0.6290 hn        1 MOL      0.332403
     50 H22         4.6430   -1.9750    1.4530 h1        1 MOL      0.152580
     51 H23         2.4370   -1.1890    2.4410 hc        1 MOL      0.083461
     52 H24         2.7160   -2.9380    2.4340 hc        1 MOL      0.083461
     53 N5          4.1470    0.6010    0.9250 n         1 MOL      0.013981
     54 C17         4.1710    2.0170    0.4750 c3        1 MOL     -0.121223
     55 C18         2.9710    2.4440   -0.3770 c         1 MOL      0.417774
     56 O9          1.8970    1.8040   -0.4490 o         1 MOL     -0.391355
     57 H25         4.2810    0.5930    1.9290 hn        1 MOL      0.238051
     58 H26         5.1130    2.3120    0.0070 h1        1 MOL      0.076719
     59 H27         4.0110    2.6230    1.3670 h1        1 MOL      0.076719
     60 N6          3.1670    3.5280   -1.1540 n         1 MOL     -0.436148
     61 C19         2.1740    4.3920   -1.8210 c3        1 MOL      0.256509
     62 C20         2.5970    5.8500   -1.7580 c         1 MOL      0.462032
     63 O10         3.7820    6.0890   -1.5490 o         1 MOL     -0.529873
     64 C21         2.0330    4.0240   -3.3230 c3        1 MOL     -0.280137
     65 C22         1.4610    2.6410   -3.5330 c         1 MOL      0.647070
     66 O11         0.3860    2.3990   -2.9490 o         1 MOL     -0.643314
     67 O12         1.9870    1.7900   -4.2850 o         1 MOL     -0.643314
     68 H28         4.0920    3.9370   -1.2100 hn        1 MOL      0.317796
     69 H29         1.2080    4.1460   -1.3960 h1        1 MOL     -0.000942
     70 H30         2.9590    4.2990   -3.8410 hc        1 MOL      0.070635
     71 H31         1.3400    4.6990   -3.8340 hc        1 MOL      0.070635
     72 N7          1.7220    6.8320   -1.9000 n         1 MOL     -0.464731
     73 C23         0.3080    6.7080   -2.0080 c3        1 MOL      0.071610
     74 C24        -0.4930    6.4000   -0.7860 c         1 MOL      0.512055
     75 O13        -0.1000    6.7350    0.3700 o         1 MOL     -0.521169
     76 H32         2.1770    7.7160   -2.0200 hn        1 MOL      0.321529
     77 H33        -0.0430    6.0110   -2.7700 h1        1 MOL      0.042084
     78 H34        -0.1020    7.6310   -2.4220 h1        1 MOL      0.042084
     79 N8         -1.6000    5.6710   -1.1030 n         1 MOL     -0.599964
     80 C25        -2.4030    5.0040   -0.0480 c3        1 MOL      0.252235
     81 C26        -1.6710    3.8010    0.5370 c         1 MOL      0.906172
     82 O14        -1.1650    3.0380   -0.2810 o         1 MOL     -0.734969
     83 C27        -3.7780    4.6710   -0.6140 c3        1 MOL      0.165505
     84 C28        -4.5020    3.5880    0.1470 c3        1 MOL     -0.323403
     85 O15        -3.7120    4.2100   -1.9370 oh        1 MOL     -0.631929
     86 H35        -1.8740    5.5500   -2.0710 hn        1 MOL      0.338074
     87 H36        -2.5300    5.7010    0.7880 h1        1 MOL     -0.031376
     88 H37        -4.3470    5.5870   -0.4380 h1        1 MOL      0.019458
     89 H38        -4.5900    4.2360   -2.3190 ho        1 MOL      0.423944
     90 H39        -5.5300    3.4880   -0.1890 hc        1 MOL      0.089601
     91 H40        -4.1440    2.5630    0.1260 hc        1 MOL      0.089601
     92 H41        -4.5310    3.8830    1.2010 hc        1 MOL      0.089601
     93 N9         -1.6300    3.6710    1.8080 n         1 MOL     -0.689495
     94 C29        -1.0610    2.5660    2.5560 c3        1 MOL     -0.085188
     95 C30        -1.5270    1.2010    2.1950 c         1 MOL      0.609781
     96 O16        -1.2530    0.6610    1.1100 o         1 MOL     -0.578366
     97 C31         0.5010    2.6590    2.6580 c3        1 MOL      0.428400
     98 C32         1.0910    4.0850    2.8050 c3        1 MOL     -0.038218
     99 C33         0.9260    1.7870    3.8200 c3        1 MOL     -0.444392
    100 C34         0.5890    4.8390    4.0350 c3        1 MOL     -0.459877
    101 H42        -2.1870    4.3490    2.3200 hn        1 MOL      0.327298
    102 H43        -1.3770    2.8190    3.5680 h1        1 MOL      0.084778
    103 H44         0.9070    2.2110    1.7490 hc        1 MOL     -0.163683
    104 H45         0.9080    4.6670    1.9050 hc        1 MOL      0.058396
    105 H46         2.1750    4.0400    2.8100 hc        1 MOL      0.058396
    106 H47         0.4490    2.1220    4.7450 hc        1 MOL      0.093529
    107 H48         0.7310    0.7150    3.7250 hc        1 MOL      0.093529
    108 H49         2.0090    1.7130    3.8770 hc        1 MOL      0.093529
    109 H50         1.0990    5.7870    3.8710 hc        1 MOL      0.118159
    110 H51        -0.4810    4.9840    4.0130 hc        1 MOL      0.118159
    111 H52         0.9730    4.3460    4.9320 hc        1 MOL      0.118159
    112 N10        -2.2170    0.5390    3.1010 n         1 MOL     -0.280142
    113 C35        -2.6430   -0.8350    3.0120 c3        1 MOL     -0.094888
    114 C36        -4.1150   -0.9610    3.0530 c         1 MOL      0.405099
    115 O17        -4.5960   -2.0890    3.0190 o         1 MOL     -0.534243
    116 C37        -1.8880   -1.7460    4.0000 c3        1 MOL      0.409326
    117 C38        -2.3560   -1.6490    5.4310 c3        1 MOL     -0.223790
    118 O18        -0.4750   -1.5150    3.9610 oh        1 MOL     -0.633362
    119 H53        -2.4550    0.9800    3.9820 hn        1 MOL      0.204585
    120 H54        -2.2890   -1.1630    2.0350 h1        1 MOL      0.059983
    121 H55        -1.9280   -2.7890    3.6940 h1        1 MOL      0.038104
    122 H56        -0.2220   -1.7300    3.0560 ho        1 MOL      0.370504
    123 H57        -3.1430   -2.3850    5.5990 hc        1 MOL      0.054005
    124 H58        -1.5410   -1.9220    6.0990 hc        1 MOL      0.054005
    125 H59        -2.7110   -0.6530    5.6850 hc        1 MOL      0.054005
    126 N11        -4.9410    0.1210    3.0960 n         1 MOL     -0.178836
    127 C39        -6.3870    0.1740    2.9160 c3        1 MOL     -0.028092
    128 C40        -6.7940   -0.2230    1.5230 c         1 MOL      0.585498
    129 O19        -7.0360    0.6590    0.7030 o         1 MOL     -0.528226
    130 C41        -6.8480    1.5240    3.3570 c3        1 MOL      0.226918
    131 C42        -7.0010    1.6880    4.8780 c3        1 MOL     -0.331737
    132 O20        -5.7880    2.4480    2.9400 oh        1 MOL     -0.645495
    133 H60        -4.4280    0.9460    2.8390 hn        1 MOL      0.204921
    134 H61        -6.8470   -0.5490    3.5870 h1        1 MOL      0.053242
    135 H62        -7.6950    1.8330    2.7460 h1        1 MOL      0.047940
    136 H63        -6.1470    3.3450    2.9390 ho        1 MOL      0.407905
    137 H64        -6.9600    2.7300    5.1730 hc        1 MOL      0.091404
    138 H65        -8.0520    1.5130    5.1070 hc        1 MOL      0.091404
    139 H66        -6.2530    1.1470    5.4510 hc        1 MOL      0.091404
    140 N12        -6.6890   -1.5140    1.2750 n         1 MOL     -0.654043
    141 C43        -6.5590   -2.2510   -0.0500 c3        1 MOL      0.297654
    142 C44        -5.1680   -2.1110   -0.6940 c         1 MOL      0.429027
    143 O21        -4.4840   -1.1600   -0.3250 o         1 MOL     -0.403770
    144 C45        -7.7170   -1.8990   -1.0370 c3        1 MOL     -0.306197
    145 C46        -9.0650   -2.4340   -0.3780 c3        1 MOL      0.125369
    146 C47       -10.3060   -2.2800   -1.2330 c3        1 MOL      0.212183
    147 C48       -11.5870   -2.3650   -0.4710 c3        1 MOL      0.043484
    148 N13       -12.7970   -2.5760   -1.2330 n4        1 MOL     -0.132593
    149 H67        -6.4340   -2.0840    2.0650 hn        1 MOL      0.339209
    150 H68        -6.5400   -3.3130    0.1970 h1        1 MOL      0.035588
    151 H69        -7.5320   -2.5230   -1.9180 hc        1 MOL      0.085999
    152 H70        -7.5700   -0.8380   -1.2230 hc        1 MOL      0.085999
    153 H71        -9.2750   -1.9970    0.5950 hc        1 MOL     -0.033110
    154 H72        -8.9280   -3.4980   -0.1890 hc        1 MOL     -0.033110
    155 H73       -10.2470   -3.1040   -1.9420 hc        1 MOL     -0.037519
    156 H74       -10.3220   -1.3310   -1.7740 hc        1 MOL     -0.037519
    157 H75       -11.7470   -1.4510    0.0910 hx        1 MOL      0.039964
    158 H76       -11.4830   -3.1290    0.3000 hx        1 MOL      0.039964
    159 H77       -12.6580   -2.4490   -2.2210 hn        1 MOL      0.195348
    160 H78       -13.1810   -3.4910   -1.0290 hn        1 MOL      0.195348
    161 H79       -13.5690   -1.9680   -1.0000 hn        1 MOL      0.195348
    162 N14        -4.7110   -2.9400   -1.6690 n         1 MOL     -0.356678
    163 C49        -3.3720   -2.8230   -2.2620 c3        1 MOL      0.003523
    164 C50        -2.0980   -2.6550   -1.3160 c         1 MOL      0.342914
    165 O22        -1.2740   -1.7910   -1.6120 o         1 MOL     -0.541614
    166 C51        -3.1120   -4.0360   -3.1850 c3        1 MOL      0.160455
    167 C52        -3.9270   -3.9170   -4.4840 c3        1 MOL     -0.288453
    168 C53        -3.9410   -5.1790   -5.3070 c         1 MOL      0.639272
    169 O23        -2.9640   -5.5170   -6.0460 o         1 MOL     -0.613993
    170 O24        -4.7970   -6.0430   -5.0120 o         1 MOL     -0.613993
    171 H80        -5.2770   -3.6980   -2.0180 hn        1 MOL      0.270834
    172 H81        -3.3410   -1.9280   -2.8890 h1        1 MOL      0.044941
    173 H82        -3.3670   -4.9800   -2.7080 hc        1 MOL      0.042091
    174 H83        -2.0240   -4.1410   -3.2660 hc        1 MOL      0.042091
    175 H84        -3.5200   -3.1650   -5.1580 hc        1 MOL      0.041490
    176 H85        -4.9340   -3.6150   -4.1740 hc        1 MOL      0.041490
    177 N15        -1.8130   -3.3900   -0.2650 n         1 MOL     -0.218876
    178 C54        -2.5370   -4.6350    0.0860 c3        1 MOL      0.136468
    179 H86        -1.9350   -5.4970   -0.2020 h1        1 MOL     -0.024898
    180 H87        -2.7170   -4.6610    1.1610 h1        1 MOL     -0.024898
    181 H88        -3.4890   -4.6650   -0.4440 h1        1 MOL     -0.024898
    182 H89        -0.9540   -3.1810    0.2130 hn        1 MOL      0.287453
    183 Ca1        -0.3210    0.5580   -1.2980 Ca        1 MOL      1.719667
    184 O25         1.5640   -0.5530   -2.6490 oh        1 MOL     -0.795805
    185 H90         2.2250   -1.0820   -2.2080 ho        1 MOL      0.388412
    186 H91         2.0200   -0.1930   -3.4180 ho        1 MOL      0.388412
    187 O26        -1.3930    0.3360   -3.7810 oh        1 MOL     -0.795805
    188 H92        -2.2350    0.7650   -3.9380 ho        1 MOL      0.388412
    189 H93        -0.8730    0.5460   -4.5500 ho        1 MOL      0.388412
    190 O27        -3.0690    0.8030   -1.3450 oh        1 MOL     -0.795805
    191 H94        -3.5680    0.1690   -0.8290 ho        1 MOL      0.388412
    192 H95        -3.6600    1.0490   -2.0580 ho        1 MOL      0.388412
@<TRIPOS>BOND
     1    1    2 1   
     2    1    4 1   
     3    1    5 1   
     4    1    6 1   
     5    2    3 2   
     6    2    7 1   
     7    7    8 1   
     8    7   15 1   
     9    8    9 1   
    10    8   11 1   
    11    8   16 1   
    12    9   10 2   
    13    9   19 1   
    14   11   12 1   
    15   11   17 1   
    16   11   18 1   
    17   12   13 1   
    18   12   14 1   
    19   19   20 1   
    20   19   28 1   
    21   20   21 1   
    22   20   23 1   
    23   20   29 1   
    24   21   22 2   
    25   21   41 1   
    26   23   24 1   
    27   23   30 1   
    28   23   31 1   
    29   24   25 1   
    30   24   32 1   
    31   24   33 1   
    32   25   26 1   
    33   25   34 1   
    34   25   35 1   
    35   26   27 1   
    36   26   36 1   
    37   26   37 1   
    38   27   38 1   
    39   27   39 1   
    40   27   40 1   
    41   41   42 1   
    42   41   49 1   
    43   42   43 1   
    44   42   45 1   
    45   42   50 1   
    46   43   44 2   
    47   43   53 1   
    48   45   46 1   
    49   45   51 1   
    50   45   52 1   
    51   46   47 1   
    52   46   48 1   
    53   53   54 1   
    54   53   57 1   
    55   54   55 1   
    56   54   58 1   
    57   54   59 1   
    58   55   56 2   
    59   55   60 1   
    60   60   61 1   
    61   60   68 1   
    62   61   62 1   
    63   61   64 1   
    64   61   69 1   
    65   62   63 2   
    66   62   72 1   
    67   64   65 1   
    68   64   70 1   
    69   64   71 1   
    70   65   66 1   
    71   65   67 1   
    72   72   73 1   
    73   72   76 1   
    74   73   74 1   
    75   73   77 1   
    76   73   78 1   
    77   74   75 2   
    78   74   79 1   
    79   79   80 1   
    80   79   86 1   
    81   80   81 1   
    82   80   83 1   
    83   80   87 1   
    84   81   82 2   
    85   81   93 1   
    86   83   84 1   
    87   83   85 1   
    88   83   88 1   
    89   84   90 1   
    90   84   91 1   
    91   84   92 1   
    92   85   89 1   
    93   93   94 1   
    94   93  101 1   
    95   94   95 1   
    96   94   97 1   
    97   94  102 1   
    98   95   96 2   
    99   95  112 1   
   100   97   98 1   
   101   97   99 1   
   102   97  103 1   
   103   98  100 1   
   104   98  104 1   
   105   98  105 1   
   106   99  106 1   
   107   99  107 1   
   108   99  108 1   
   109  100  109 1   
   110  100  110 1   
   111  100  111 1   
   112  112  113 1   
   113  112  119 1   
   114  113  114 1   
   115  113  116 1   
   116  113  120 1   
   117  114  115 2   
   118  114  126 1   
   119  116  117 1   
   120  116  118 1   
   121  116  121 1   
   122  117  123 1   
   123  117  124 1   
   124  117  125 1   
   125  118  122 1   
   126  126  127 1   
   127  126  133 1   
   128  127  128 1   
   129  127  130 1   
   130  127  134 1   
   131  128  129 2   
   132  128  140 1   
   133  130  131 1   
   134  130  132 1   
   135  130  135 1   
   136  131  137 1   
   137  131  138 1   
   138  131  139 1   
   139  132  136 1   
   140  140  141 1   
   141  140  149 1   
   142  141  142 1   
   143  141  144 1   
   144  141  150 1   
   145  142  143 2   
   146  142  162 1   
   147  144  145 1   
   148  144  151 1   
   149  144  152 1   
   150  145  146 1   
   151  145  153 1   
   152  145  154 1   
   153  146  147 1   
   154  146  155 1   
   155  146  156 1   
   156  147  148 1   
   157  147  157 1   
   158  147  158 1   
   159  148  159 1   
   160  148  160 1   
   161  148  161 1   
   162  162  163 1   
   163  162  171 1   
   164  163  164 1   
   165  163  166 1   
   166  163  172 1   
   167  164  165 2   
   168  164  177 1   
   169  166  167 1   
   170  166  173 1   
   171  166  174 1   
   172  167  168 1   
   173  167  175 1   
   174  167  176 1   
   175  168  169 1   
   176  168  170 1   
   177  177  178 1   
   178  177  182 1   
   179  178  179 1   
   180  178  180 1   
   181  178  181 1   
   182  184  185 1   
   183  184  186 1   
   184  187  188 1   
   185  187  189 1   
   186  190  191 1   
   187  190  192 1   
@<TRIPOS>SUBSTRUCTURE
     1 MOL         1 TEMP              0 ****  ****    0 ROOT
