@<TRIPOS>MOLECULE
MOL
  188   182     1     0     0
SMALL
resp


@<TRIPOS>ATOM
      1 C1          5.8860    1.3270    4.1520 c3        1 MOL     -0.477078
      2 C2          6.0480    1.8040    2.7460 c         1 MOL      0.664699
      3 O1          5.2790    1.3660    1.8710 o         1 MOL     -0.560118
      4 H1          6.7010    1.7150    4.7620 hc        1 MOL      0.124675
      5 H2          4.9350    1.6800    4.5490 hc        1 MOL      0.124675
      6 H3          5.9050    0.2370    4.1710 hc        1 MOL      0.124675
      7 N1          7.0030    2.6550    2.3800 n         1 MOL     -0.556039
      8 C3          7.3120    3.0940    0.9690 c3        1 MOL      0.335821
      9 C4          7.6660    1.8340    0.0380 c         1 MOL      0.477573
     10 O2          7.3440    1.8290   -1.1690 o         1 MOL     -0.431393
     11 C5          6.3210    4.0950    0.4320 c3        1 MOL     -0.416692
     12 C6          6.7340    4.6650   -0.9640 c         1 MOL      0.724201
     13 O3          5.8200    5.0210   -1.7960 o         1 MOL     -0.639908
     14 O4          7.9100    4.7930   -1.2470 o         1 MOL     -0.639908
     15 H4          7.6270    2.9310    3.1220 hn        1 MOL      0.284858
     16 H5          8.3200    3.5180    0.8920 h1        1 MOL     -0.009949
     17 H6          6.2070    4.9540    1.0880 hc        1 MOL      0.117508
     18 H7          5.3980    3.5840    0.1770 hc        1 MOL      0.117508
     19 N2          8.3850    0.7940    0.5540 n         1 MOL     -0.450057
     20 C7          8.7580   -0.4990   -0.1340 c3        1 MOL      0.097714
     21 C8          7.6710   -1.3750   -0.6600 c         1 MOL      0.424345
     22 O5          7.8430   -2.3200   -1.4600 o         1 MOL     -0.532245
     23 C9          9.6740   -1.2400    0.8230 c3        1 MOL      0.044207
     24 C10        10.3380   -2.5470    0.3930 c3        1 MOL      0.041122
     25 C11         9.6190   -3.9050    0.7290 c3        1 MOL     -0.175564
     26 C12         9.3280   -4.0550    2.3010 c3        1 MOL     -0.078153
     27 N3         10.6740   -4.3190    2.8440 n4        1 MOL     -0.264052
     28 H8          8.7340    0.8370    1.4990 hn        1 MOL      0.199642
     29 H9          9.1980   -0.2280   -1.1030 h1        1 MOL      0.102018
     30 H10         9.0950   -1.4330    1.7280 hc        1 MOL     -0.010830
     31 H11        10.4980   -0.5370    0.9740 hc        1 MOL     -0.010830
     32 H12        11.2970   -2.5630    0.9240 hc        1 MOL      0.010362
     33 H13        10.6240   -2.5160   -0.6500 hc        1 MOL      0.010362
     34 H14        10.1830   -4.7690    0.3810 hc        1 MOL      0.095344
     35 H15         8.7140   -3.8500    0.1330 hc        1 MOL      0.095344
     36 H16         8.6320   -4.8760    2.4840 hx        1 MOL      0.126085
     37 H17         8.8660   -3.1720    2.7390 hx        1 MOL      0.126085
     38 H18        10.9350   -5.2720    2.6610 hn        1 MOL      0.247083
     39 H19        11.4440   -3.7860    2.4600 hn        1 MOL      0.247083
     40 H20        10.6690   -4.2340    3.8500 hn        1 MOL      0.247083
     41 N4          6.4960   -1.0860   -0.1560 n         1 MOL     -0.160866
     42 C13         5.2210   -1.7070   -0.5950 c3        1 MOL     -0.154221
     43 C14         4.9030   -1.5900   -2.1030 c         1 MOL      0.588197
     44 O6          5.2420   -0.6450   -2.7690 o         1 MOL     -0.426110
     45 C15         4.0760   -1.0280    0.2380 c3        1 MOL      0.010158
     46 C16         2.6980   -1.5730   -0.0630 c         1 MOL      0.459820
     47 O7          2.3040   -2.5420    0.6120 o         1 MOL     -0.656518
     48 O8          1.9400   -0.9710   -0.8420 o         1 MOL     -0.656518
     49 H21         6.4400   -0.3620    0.5470 hn        1 MOL      0.132635
     50 H22         5.2630   -2.7670   -0.3400 h1        1 MOL      0.056960
     51 H23         4.0840    0.0380    0.0390 hc        1 MOL      0.035497
     52 H24         4.3010   -1.3650    1.2450 hc        1 MOL      0.035497
     53 N5          4.3100   -2.6170   -2.7410 n         1 MOL     -0.434587
     54 C17         4.1400   -2.6660   -4.2030 c3        1 MOL     -0.135376
     55 C18         3.2110   -1.5800   -4.7870 c         1 MOL      0.477002
     56 O9          3.2920   -1.3530   -6.0330 o         1 MOL     -0.538396
     57 H25         4.0250   -3.4600   -2.2660 hn        1 MOL      0.280410
     58 H26         3.8030   -3.6550   -4.5080 h1        1 MOL      0.111599
     59 H27         5.1020   -2.5260   -4.6970 h1        1 MOL      0.111599
     60 N6          2.3480   -0.9990   -3.9650 n         1 MOL     -0.363910
     61 C19         1.5240    0.2020   -4.2370 c3        1 MOL      0.140909
     62 C20         1.7210    1.3770   -3.2350 c         1 MOL      0.411616
     63 O10         0.7510    2.1170   -3.0590 o         1 MOL     -0.518728
     64 C21         0.0640   -0.2220   -4.5670 c3        1 MOL     -0.208636
     65 C22        -0.7580   -0.4900   -3.3140 c         1 MOL      0.551925
     66 N7         -1.7670    0.2910   -3.0190 n         1 MOL     -0.605292
     67 O11        -0.4930   -1.4300   -2.5660 o         1 MOL     -0.627367
     68 H28         2.4820   -1.2040   -2.9900 hn        1 MOL      0.269092
     69 H29         1.8530    0.5670   -5.2120 h1        1 MOL      0.080820
     70 H30         0.1360   -1.1840   -5.0730 hc        1 MOL      0.081950
     71 H31        -0.4360    0.4510   -5.2540 hc        1 MOL      0.081950
     72 H32        -2.0780    1.0200   -3.6360 hn        1 MOL      0.320752
     73 H33        -2.3420    0.0170   -2.2420 hn        1 MOL      0.320752
     74 N8          2.8850    1.3930   -2.5460 n         1 MOL     -0.285287
     75 C23         3.3640    2.5340   -1.6810 c3        1 MOL     -0.001906
     76 C24         2.4970    2.8170   -0.4380 c         1 MOL      0.354663
     77 O12         2.5590    3.8890    0.1660 o         1 MOL     -0.526101
     78 H34         3.5550    0.6300   -2.6090 hn        1 MOL      0.160739
     79 H35         3.5100    3.3780   -2.3610 h1        1 MOL      0.106761
     80 H36         4.3210    2.3270   -1.2150 h1        1 MOL      0.106761
     81 N9          1.7060    1.8500    0.0200 n         1 MOL     -0.146312
     82 C25         0.9380    2.0730    1.2590 c3        1 MOL      0.015833
     83 C26        -0.4240    1.3730    1.0340 c         1 MOL      0.262196
     84 O13        -0.4870    0.3060    0.4540 o         1 MOL     -0.470882
     85 C27         1.7950    1.5920    2.4440 c3        1 MOL     -0.155961
     86 C28         1.0030    1.2830    3.7760 ca        1 MOL     -0.088338
     87 C29         0.6790    2.3420    4.6470 ca        1 MOL     -0.006804
     88 C30         0.6080    0.0010    4.0300 ca        1 MOL     -0.006804
     89 C31        -0.0230    2.1470    5.7890 ca        1 MOL     -0.378108
     90 C32        -0.0510   -0.2790    5.2590 ca        1 MOL     -0.378108
     91 C33        -0.3970    0.7810    6.1280 ca        1 MOL      0.373344
     92 O14        -1.1960    0.6170    7.1840 oh        1 MOL     -0.430238
     93 H37         1.5820    0.9940   -0.5030 hn        1 MOL      0.272309
     94 H38         0.7130    3.1330    1.3860 h1        1 MOL      0.073530
     95 H39         2.4250    2.4140    2.7610 hc        1 MOL      0.124685
     96 H40         2.4010    0.7200    2.2040 hc        1 MOL      0.124685
     97 H41         1.0030    3.3550    4.4700 ha        1 MOL      0.111977
     98 H42         0.9950   -0.7900    3.4020 ha        1 MOL      0.111977
     99 H43        -0.3040    2.9050    6.5090 ha        1 MOL      0.174325
    100 H44        -0.5400   -1.2170    5.5000 ha        1 MOL      0.174325
    101 H45        -1.4870   -0.3010    7.2030 ho        1 MOL      0.334717
    102 N10        -1.5600    1.9180    1.5120 n         1 MOL     -0.329101
    103 C34        -2.9250    1.4540    1.4930 c3        1 MOL      0.156233
    104 C35        -3.5540    1.7030    0.0970 c         1 MOL      0.546419
    105 O15        -3.9940    0.7170   -0.5340 o         1 MOL     -0.516010
    106 C36        -3.7450    2.1330    2.5710 c3        1 MOL      0.048149
    107 C37        -3.4220    1.6550    3.9600 c3        1 MOL     -0.012653
    108 C38        -5.2490    1.8350    2.3090 c3        1 MOL     -0.529903
    109 C39        -3.5790    0.1870    4.2600 c3        1 MOL     -0.175552
    110 H46        -1.3900    2.7700    2.0140 hn        1 MOL      0.224376
    111 H47        -2.9790    0.3820    1.7110 h1        1 MOL      0.024569
    112 H48        -3.6040    3.2110    2.5290 hc        1 MOL     -0.005102
    113 H49        -4.0590    2.1480    4.6910 hc        1 MOL      0.041678
    114 H50        -2.3720    1.9140    4.1160 hc        1 MOL      0.041678
    115 H51        -5.6220    2.4080    1.4560 hc        1 MOL      0.157709
    116 H52        -5.4200    0.7810    2.0630 hc        1 MOL      0.157709
    117 H53        -5.8230    2.1010    3.1970 hc        1 MOL      0.157709
    118 H54        -2.8500   -0.3310    3.6270 hc        1 MOL      0.042265
    119 H55        -3.3970    0.0220    5.3240 hc        1 MOL      0.042265
    120 H56        -4.5620   -0.2030    3.9770 hc        1 MOL      0.042265
    121 N11        -3.5020    2.9620   -0.3960 n         1 MOL     -0.356937
    122 C40        -3.9730    3.3080   -1.8020 c3        1 MOL     -0.157961
    123 C41        -5.4520    3.3810   -1.9370 c         1 MOL      0.602435
    124 O16        -5.9500    3.2120   -3.0790 o         1 MOL     -0.527375
    125 C42        -3.4220    4.6640   -2.2530 c3        1 MOL      0.169118
    126 O17        -3.8000    5.7400   -1.4460 oh        1 MOL     -0.624070
    127 H57        -3.2790    3.7180    0.2330 hn        1 MOL      0.262714
    128 H58        -3.5580    2.6030   -2.5220 h1        1 MOL      0.122274
    129 H59        -3.8280    4.8210   -3.2510 h1        1 MOL      0.045691
    130 H60        -2.3360    4.5910   -2.4050 h1        1 MOL      0.045691
    131 H61        -3.2530    6.4600   -1.7600 ho        1 MOL      0.429375
    132 N12        -6.2070    3.5570   -0.8350 n         1 MOL     -0.323642
    133 C43        -7.6910    3.5230   -0.7620 c3        1 MOL      0.179471
    134 C44        -8.2210    2.1860   -1.3620 c         1 MOL      0.526379
    135 O18        -9.2710    2.1450   -1.9520 o         1 MOL     -0.519351
    136 C45        -8.3410    4.8350   -1.2110 c3        1 MOL     -0.467376
    137 H62        -5.7240    3.8440    0.0170 hn        1 MOL      0.232947
    138 H63        -7.8580    3.4740    0.3120 h1        1 MOL      0.041111
    139 H64        -9.3970    4.7730   -0.9810 hc        1 MOL      0.135009
    140 H65        -7.9110    5.6270   -0.5900 hc        1 MOL      0.135009
    141 H66        -8.1820    5.0150   -2.2780 hc        1 MOL      0.135009
    142 N13        -7.5050    1.0710   -1.1450 n         1 MOL     -0.533841
    143 C46        -7.8550   -0.2870   -1.6180 c3        1 MOL      0.381071
    144 C47        -7.8930   -1.3320   -0.4460 c         1 MOL      0.442967
    145 O19        -7.3930   -0.9820    0.6740 o         1 MOL     -0.474348
    146 C48        -6.7820   -0.6780   -2.6800 c3        1 MOL      0.051500
    147 H67        -6.7180    0.9890   -0.5320 hn        1 MOL      0.132557
    148 H68        -8.8000   -0.3560   -2.1750 h1        1 MOL     -0.022283
    149 H69        -7.2500   -0.3730   -3.6150 hc        1 MOL     -0.012323
    150 H70        -5.7840   -0.2350   -2.6740 hc        1 MOL     -0.012323
    151 H71        -6.6980   -1.7550   -2.7890 hc        1 MOL     -0.012323
    152 N14        -8.5040   -2.4820   -0.6960 n         1 MOL     -0.532820
    153 C49        -8.6580   -3.5360    0.2700 c3        1 MOL      0.040432
    154 C50        -9.4570   -3.0300    1.5310 c         1 MOL      0.359118
    155 O20        -9.5880   -3.7520    2.4570 o         1 MOL     -0.475837
    156 C51        -7.2610   -4.1560    0.5550 c3        1 MOL     -0.075607
    157 C52        -6.5500   -4.5250   -0.7220 c3        1 MOL     -0.146369
    158 C53        -5.0110   -4.4600   -0.4760 c         1 MOL      0.647184
    159 O21        -4.4610   -5.0360    0.4710 o         1 MOL     -0.694511
    160 O22        -4.4450   -3.6750   -1.1930 o         1 MOL     -0.694511
    161 H72        -8.8630   -2.6420   -1.6310 hn        1 MOL      0.309954
    162 H73        -9.2700   -4.2850   -0.2450 h1        1 MOL      0.107307
    163 H74        -7.4140   -5.0740    1.1270 hc        1 MOL      0.079581
    164 H75        -6.6150   -3.3520    0.9020 hc        1 MOL      0.079581
    165 H76        -6.7900   -3.8460   -1.5370 hc        1 MOL      0.024082
    166 H77        -6.8660   -5.5540   -0.8690 hc        1 MOL      0.024082
    167 N15       -10.1270   -1.8630    1.6320 n         1 MOL     -0.201315
    168 C54       -10.5330   -1.2180    2.9290 c3        1 MOL     -0.235279
    169 H78        -9.6420   -0.9870    3.5130 h1        1 MOL      0.112154
    170 H79       -11.0800   -0.2980    2.7230 h1        1 MOL      0.112154
    171 H80       -11.1690   -1.9010    3.4920 h1        1 MOL      0.112154
    172 H81       -10.3260   -1.3320    0.7890 hn        1 MOL      0.184336
    173 Ca1        -0.1640   -2.3870   -0.1260 Ca        1 MOL      1.796001
    174 O23         0.2740   -4.6800    1.1650 oh        1 MOL     -0.847635
    175 H82        -0.1600   -5.4470    0.8010 ho        1 MOL      0.412758
    176 H83         0.6680   -4.9850    1.9830 ho        1 MOL      0.412758
    177 O24        -0.9790   -2.1380    2.3410 oh        1 MOL     -0.847635
    178 H84        -1.7760   -2.6330    2.5390 ho        1 MOL      0.412758
    179 H85        -1.0200   -1.3680    2.9090 ho        1 MOL      0.412758
    180 O25         1.1640   -3.9400   -2.1060 oh        1 MOL     -0.847635
    181 H86         1.9840   -4.4240   -2.1580 ho        1 MOL      0.412758
    182 H87         0.8670   -3.8680   -3.0120 ho        1 MOL      0.412758
    183 O26        -1.7390   -4.3290   -1.1780 oh        1 MOL     -0.847635
    184 H88        -2.6750   -4.2560   -0.9830 ho        1 MOL      0.412758
    185 H89        -1.7020   -4.8410   -1.9790 ho        1 MOL      0.412758
    186 O27        -2.7130   -1.7900   -0.4100 oh        1 MOL     -0.847635
    187 H90        -3.3620   -2.4870   -0.5010 ho        1 MOL      0.412758
    188 H91        -3.2380   -1.0000   -0.2510 ho        1 MOL      0.412758
@<TRIPOS>BOND
     1    1    2 1   
     2    1    4 1   
     3    1    5 1   
     4    1    6 1   
     5    2    3 2   
     6    2    7 1   
     7    7    8 1   
     8    7   15 1   
     9    8    9 1   
    10    8   11 1   
    11    8   16 1   
    12    9   10 2   
    13    9   19 1   
    14   11   12 1   
    15   11   17 1   
    16   11   18 1   
    17   12   13 1   
    18   12   14 1   
    19   19   20 1   
    20   19   28 1   
    21   20   21 1   
    22   20   23 1   
    23   20   29 1   
    24   21   22 2   
    25   21   41 1   
    26   23   24 1   
    27   23   30 1   
    28   23   31 1   
    29   24   25 1   
    30   24   32 1   
    31   24   33 1   
    32   25   26 1   
    33   25   34 1   
    34   25   35 1   
    35   26   27 1   
    36   26   36 1   
    37   26   37 1   
    38   27   38 1   
    39   27   39 1   
    40   27   40 1   
    41   41   42 1   
    42   41   49 1   
    43   42   43 1   
    44   42   45 1   
    45   42   50 1   
    46   43   44 2   
    47   43   53 1   
    48   45   46 1   
    49   45   51 1   
    50   45   52 1   
    51   46   47 1   
    52   46   48 1   
    53   53   54 1   
    54   53   57 1   
    55   54   55 1   
    56   54   58 1   
    57   54   59 1   
    58   55   56 2   
    59   55   60 1   
    60   60   61 1   
    61   60   68 1   
    62   61   62 1   
    63   61   64 1   
    64   61   69 1   
    65   62   63 2   
    66   62   74 1   
    67   64   65 1   
    68   64   70 1   
    69   64   71 1   
    70   65   66 1   
    71   65   67 2   
    72   66   72 1   
    73   66   73 1   
    74   74   75 1   
    75   74   78 1   
    76   75   76 1   
    77   75   79 1   
    78   75   80 1   
    79   76   77 2   
    80   76   81 1   
    81   81   82 1   
    82   81   93 1   
    83   82   83 1   
    84   82   85 1   
    85   82   94 1   
    86   83   84 2   
    87   83  102 1   
    88   85   86 1   
    89   85   95 1   
    90   85   96 1   
    91   86   87 ar  
    92   86   88 ar  
    93   87   89 ar  
    94   87   97 1   
    95   88   90 ar  
    96   88   98 1   
    97   89   91 ar  
    98   89   99 1   
    99   90   91 ar  
   100   90  100 1   
   101   91   92 1   
   102   92  101 1   
   103  102  103 1   
   104  102  110 1   
   105  103  104 1   
   106  103  106 1   
   107  103  111 1   
   108  104  105 2   
   109  104  121 1   
   110  106  107 1   
   111  106  108 1   
   112  106  112 1   
   113  107  109 1   
   114  107  113 1   
   115  107  114 1   
   116  108  115 1   
   117  108  116 1   
   118  108  117 1   
   119  109  118 1   
   120  109  119 1   
   121  109  120 1   
   122  121  122 1   
   123  121  127 1   
   124  122  123 1   
   125  122  125 1   
   126  122  128 1   
   127  123  124 2   
   128  123  132 1   
   129  125  126 1   
   130  125  129 1   
   131  125  130 1   
   132  126  131 1   
   133  132  133 1   
   134  132  137 1   
   135  133  134 1   
   136  133  136 1   
   137  133  138 1   
   138  134  135 2   
   139  134  142 1   
   140  136  139 1   
   141  136  140 1   
   142  136  141 1   
   143  142  143 1   
   144  142  147 1   
   145  143  144 1   
   146  143  146 1   
   147  143  148 1   
   148  144  145 2   
   149  144  152 1   
   150  146  149 1   
   151  146  150 1   
   152  146  151 1   
   153  152  153 1   
   154  152  161 1   
   155  153  154 1   
   156  153  156 1   
   157  153  162 1   
   158  154  155 2   
   159  154  167 1   
   160  156  157 1   
   161  156  163 1   
   162  156  164 1   
   163  157  158 1   
   164  157  165 1   
   165  157  166 1   
   166  158  159 1   
   167  158  160 1   
   168  167  168 1   
   169  167  172 1   
   170  168  169 1   
   171  168  170 1   
   172  168  171 1   
   173  174  175 1   
   174  174  176 1   
   175  177  178 1   
   176  177  179 1   
   177  180  181 1   
   178  180  182 1   
   179  183  184 1   
   180  183  185 1   
   181  186  187 1   
   182  186  188 1   
@<TRIPOS>SUBSTRUCTURE
     1 MOL         1 TEMP              0 ****  ****    0 ROOT
