@<TRIPOS>MOLECULE
MOL
  185   180     1     0     0
SMALL
resp


@<TRIPOS>ATOM
      1 C1         -5.5650    2.5140   -1.1430 c3        1 MOL     -0.271333
      2 C2         -6.7200    2.0410   -0.2230 c         1 MOL      0.689237
      3 O1         -6.5560    1.5870    0.9150 o         1 MOL     -0.546194
      4 H1         -4.8330    3.0640   -0.5510 hc        1 MOL      0.059844
      5 H2         -5.0860    1.6480   -1.6000 hc        1 MOL      0.059844
      6 H3         -5.9630    3.1630   -1.9230 hc        1 MOL      0.059844
      7 N1         -7.8960    2.0970   -0.8360 n         1 MOL     -0.459343
      8 C3         -9.2160    1.5860   -0.2520 c3        1 MOL     -0.093829
      9 C4         -9.3790    0.0560   -0.0990 c         1 MOL      0.590604
     10 O2        -10.4090   -0.4460    0.4770 o         1 MOL     -0.543764
     11 C5         -9.5950    2.3680    1.0860 c3        1 MOL     -0.188631
     12 C6         -9.7660    3.8900    0.8820 c         1 MOL      0.707459
     13 O3         -9.5400    4.5900    1.9040 o         1 MOL     -0.683411
     14 O4        -10.1580    4.3480   -0.2180 o         1 MOL     -0.683411
     15 H4         -7.8840    2.3490   -1.8080 hn        1 MOL      0.286695
     16 H5         -9.9280    1.9610   -0.9820 h1        1 MOL      0.054435
     17 H6         -8.9180    2.1170    1.8950 hc        1 MOL      0.078745
     18 H7        -10.5460    2.0160    1.4940 hc        1 MOL      0.078745
     19 N2         -8.4570   -0.7240   -0.6560 n         1 MOL     -0.440684
     20 C7         -8.6220   -2.1470   -1.0300 c3        1 MOL      0.094994
     21 C8         -7.3540   -2.9210   -0.7280 c         1 MOL      0.581878
     22 O5         -7.4760   -4.1080   -0.4260 o         1 MOL     -0.558223
     23 C9         -8.9000   -2.2130   -2.5460 c3        1 MOL     -0.046266
     24 C10        -9.8600   -1.2330   -3.1500 c3        1 MOL      0.013148
     25 C11       -11.3230   -1.4880   -2.6580 c3        1 MOL      0.080928
     26 C12       -12.3450   -0.3380   -3.1150 c3        1 MOL     -0.079167
     27 N3        -13.6670   -0.4910   -2.4670 n4        1 MOL     -0.232926
     28 H8         -7.6610   -0.2850   -1.0990 hn        1 MOL      0.198598
     29 H9         -9.4630   -2.6130   -0.5120 h1        1 MOL      0.081548
     30 H10        -9.3070   -3.2070   -2.6890 hc        1 MOL      0.011828
     31 H11        -7.9010   -2.1090   -2.9840 hc        1 MOL      0.011828
     32 H12        -9.7770   -1.4450   -4.2150 hc        1 MOL      0.002645
     33 H13        -9.6490   -0.1760   -3.0120 hc        1 MOL      0.002645
     34 H14       -11.2940   -1.6230   -1.5760 hc        1 MOL      0.004404
     35 H15       -11.6500   -2.4090   -3.1350 hc        1 MOL      0.004404
     36 H16       -12.3620   -0.3680   -4.2090 hx        1 MOL      0.094339
     37 H17       -11.8740    0.6330   -2.9440 hx        1 MOL      0.094339
     38 H18       -14.3660   -0.0350   -3.0470 hn        1 MOL      0.283037
     39 H19       -14.0560   -1.4120   -2.6180 hn        1 MOL      0.283037
     40 H20       -13.6720   -0.1090   -1.5280 hn        1 MOL      0.283037
     41 N4         -6.1750   -2.3060   -0.7050 n         1 MOL     -0.434017
     42 C13        -4.8490   -2.8170   -0.2030 c3        1 MOL     -0.117285
     43 C14        -4.9050   -3.1310    1.3060 c         1 MOL      0.610393
     44 O6         -5.5530   -2.3960    2.0800 o         1 MOL     -0.465964
     45 C15        -3.7980   -1.7790   -0.5950 c3        1 MOL     -0.367780
     46 C16        -2.2910   -2.2090   -0.4550 c         1 MOL      0.892922
     47 O7         -1.5440   -1.7580   -1.3000 o         1 MOL     -0.769097
     48 O8         -1.9150   -3.0690    0.3380 o         1 MOL     -0.769097
     49 H21        -6.1140   -1.3270   -0.9660 hn        1 MOL      0.305079
     50 H22        -4.6440   -3.7550   -0.7250 h1        1 MOL      0.105299
     51 H23        -3.9490   -0.8090   -0.1320 hc        1 MOL      0.095501
     52 H24        -3.9710   -1.6450   -1.6610 hc        1 MOL      0.095501
     53 N5         -4.1740   -4.1620    1.7290 n         1 MOL     -0.429637
     54 C17        -3.9980   -4.4660    3.1510 c3        1 MOL     -0.075101
     55 C18        -3.2470   -3.2880    3.9230 c         1 MOL      0.456445
     56 O9         -3.6780   -2.9550    5.0510 o         1 MOL     -0.530962
     57 H25        -3.4640   -4.4660    1.0700 hn        1 MOL      0.245457
     58 H26        -3.3220   -5.3250    3.1890 h1        1 MOL      0.083711
     59 H27        -4.9160   -4.6760    3.7060 h1        1 MOL      0.083711
     60 N6         -2.3090   -2.7090    3.2330 n         1 MOL     -0.399864
     61 C19        -1.4420   -1.6490    3.8400 c3        1 MOL      0.258609
     62 C20        -1.0380   -0.4520    2.8990 c         1 MOL      0.368594
     63 O10         0.1780   -0.2520    2.7280 o         1 MOL     -0.422006
     64 C21        -0.2980   -2.4510    4.4420 c3        1 MOL     -0.417547
     65 C22         0.6140   -3.1450    3.3700 c         1 MOL      0.642839
     66 N7          1.4790   -4.0170    3.8380 n         1 MOL     -0.737661
     67 O11         0.4070   -3.0330    2.1860 o         1 MOL     -0.545360
     68 H28        -2.0010   -3.1120    2.3580 hn        1 MOL      0.315967
     69 H29        -1.9980   -1.2160    4.6670 h1        1 MOL      0.072172
     70 H30        -0.6410   -3.2520    5.1000 hc        1 MOL      0.121649
     71 H31         0.3330   -1.7880    5.0290 hc        1 MOL      0.121649
     72 H32         1.6560   -3.9870    4.8330 hn        1 MOL      0.355458
     73 H33         2.0320   -4.6540    3.2800 hn        1 MOL      0.355458
     74 N8         -1.9820    0.2210    2.2260 n         1 MOL     -0.478508
     75 C23        -1.6850    1.0780    1.0880 c3        1 MOL      0.186887
     76 C24        -0.9670    2.3920    1.3680 c         1 MOL      0.491058
     77 O12        -0.8690    2.7440    2.5560 o         1 MOL     -0.495347
     78 H34        -2.9440    0.1280    2.4850 hn        1 MOL      0.323264
     79 H35        -2.6510    1.2980    0.6420 h1        1 MOL      0.023364
     80 H36        -1.1000    0.5820    0.3150 h1        1 MOL      0.023364
     81 N9         -0.4950    3.0750    0.3660 n         1 MOL     -0.507106
     82 C25         0.7990    3.7320    0.3950 c3        1 MOL      0.338221
     83 C26         1.9290    2.6920    0.2800 c         1 MOL      0.562504
     84 O13         1.7150    1.4600    0.3800 o         1 MOL     -0.522255
     85 C27         0.8540    4.6800   -0.8140 c3        1 MOL     -0.244586
     86 C28        -0.2980    5.6510   -0.9030 ca        1 MOL      0.047080
     87 C29        -1.1300    5.6800   -1.9980 ca        1 MOL     -0.126229
     88 C30        -0.4100    6.6760    0.0670 ca        1 MOL     -0.126229
     89 C31        -2.2340    6.5850   -2.1040 ca        1 MOL     -0.295931
     90 C32        -1.3490    7.6800   -0.0780 ca        1 MOL     -0.295931
     91 C33        -2.3100    7.6080   -1.1250 ca        1 MOL      0.378976
     92 O14        -3.1450    8.6390   -1.4640 oh        1 MOL     -0.471913
     93 H37        -0.7000    2.7370   -0.5580 hn        1 MOL      0.246877
     94 H38         0.8300    4.1800    1.3960 h1        1 MOL      0.037628
     95 H39         0.9620    4.1160   -1.7470 hc        1 MOL      0.068313
     96 H40         1.7460    5.2940   -0.6790 hc        1 MOL      0.068313
     97 H41        -0.9550    4.9400   -2.7710 ha        1 MOL      0.122427
     98 H42         0.3260    6.7170    0.8490 ha        1 MOL      0.122427
     99 H43        -2.8630    6.4820   -2.9760 ha        1 MOL      0.168681
    100 H44        -1.4860    8.4710    0.6560 ha        1 MOL      0.168681
    101 H45        -2.9250    9.3630   -0.8700 ho        1 MOL      0.354206
    102 N10         3.1390    3.1310   -0.0090 n         1 MOL     -0.719461
    103 C34         4.3020    2.3230   -0.3020 c3        1 MOL      0.210865
    104 C35         5.2040    2.3890    0.8190 c         1 MOL      0.747285
    105 O15         5.5090    1.3320    1.4370 o         1 MOL     -0.582909
    106 C36         4.8960    2.7840   -1.6490 c3        1 MOL      0.105644
    107 C37         3.8860    2.9770   -2.7870 c3        1 MOL      0.193337
    108 C38         6.0200    1.8610   -2.0740 c3        1 MOL     -0.599171
    109 C39         4.4040    3.6220   -4.1150 c3        1 MOL     -0.251147
    110 H46         3.2380    4.1360   -0.0120 hn        1 MOL      0.246733
    111 H47         3.9810    1.3000   -0.4960 h1        1 MOL      0.067336
    112 H48         5.3940    3.7550   -1.6150 hc        1 MOL     -0.031318
    113 H49         3.0210    3.6020   -2.5560 hc        1 MOL     -0.022339
    114 H50         3.3140    2.0510   -2.8720 hc        1 MOL     -0.022339
    115 H51         5.6230    0.9130   -2.4440 hc        1 MOL      0.119856
    116 H52         6.7090    2.2640   -2.8100 hc        1 MOL      0.119856
    117 H53         6.6570    1.5370   -1.2460 hc        1 MOL      0.119856
    118 H54         4.0640    3.0260   -4.9680 hc        1 MOL      0.067181
    119 H55         4.0540    4.6500   -4.1800 hc        1 MOL      0.067181
    120 H56         5.4970    3.6450   -4.1460 hc        1 MOL      0.067181
    121 N11         5.8010    3.5850    1.0390 n         1 MOL     -0.595551
    122 C40         6.8090    3.7000    2.0660 c3        1 MOL      0.197559
    123 C41         8.1040    3.0230    1.5700 c         1 MOL      0.085130
    124 O16         8.8970    2.5400    2.3340 o         1 MOL     -0.459052
    125 C42         7.0490    5.2200    2.3400 c3        1 MOL      0.223710
    126 O17         5.8330    5.8400    2.7660 oh        1 MOL     -0.594330
    127 H57         5.5680    4.3480    0.4270 hn        1 MOL      0.298574
    128 H58         6.3450    3.1680    2.8970 h1        1 MOL      0.121966
    129 H59         7.4620    5.7310    1.4760 h1        1 MOL      0.017042
    130 H60         7.7480    5.2930    3.1650 h1        1 MOL      0.017042
    131 H61         5.8190    6.6890    2.3100 ho        1 MOL      0.386829
    132 N12         8.3360    2.9490    0.2490 n         1 MOL     -0.024457
    133 C43         9.4510    2.3650   -0.4840 c3        1 MOL      0.169373
    134 C44         9.5520    0.8190   -0.2890 c         1 MOL      0.420646
    135 O18        10.5300    0.2460   -0.7610 o         1 MOL     -0.505986
    136 C45        10.6970    3.1730   -0.1460 c3        1 MOL     -0.548992
    137 H62         7.7620    3.6260   -0.2470 hn        1 MOL      0.137300
    138 H63         9.1630    2.5960   -1.5080 h1        1 MOL      0.047380
    139 H64        10.6420    4.1900   -0.5480 hc        1 MOL      0.158763
    140 H65        10.8060    3.2160    0.9360 hc        1 MOL      0.158763
    141 H66        11.4950    2.5400   -0.5150 hc        1 MOL      0.158763
    142 N13         8.5560    0.1240    0.3750 n         1 MOL     -0.373739
    143 C46         8.6100   -1.3050    0.6790 c3        1 MOL      0.328219
    144 C47         7.9020   -2.0670   -0.5300 c         1 MOL      0.303734
    145 O19         7.2800   -1.5590   -1.4410 o         1 MOL     -0.348281
    146 C48         7.9720   -1.6540    2.0450 c3        1 MOL     -0.470893
    147 H67         7.8060    0.7190    0.6980 hn        1 MOL      0.294102
    148 H68         9.6670   -1.5660    0.6740 h1        1 MOL      0.025469
    149 H69         6.9290   -1.3420    2.0460 hc        1 MOL      0.139093
    150 H70         8.0430   -2.7320    2.1800 hc        1 MOL      0.139093
    151 H71         8.5580   -1.1970    2.8550 hc        1 MOL      0.139093
    152 N14         7.8930   -3.3740   -0.3710 n         1 MOL     -0.500271
    153 C49         7.3830   -4.4410   -1.2950 c3        1 MOL     -0.015880
    154 C50         8.1560   -4.4500   -2.6880 c         1 MOL      0.410848
    155 O20         8.5170   -5.5410   -3.1480 o         1 MOL     -0.517734
    156 C51         5.9030   -4.3760   -1.4010 c3        1 MOL      0.096887
    157 C52         5.1450   -4.3580   -0.0600 c3        1 MOL      0.011240
    158 C53         3.5810   -4.2020   -0.2330 c         1 MOL      0.601913
    159 O21         2.9110   -5.2290   -0.5330 o         1 MOL     -0.728501
    160 O22         3.1210   -3.1120   -0.0010 o         1 MOL     -0.728501
    161 H72         8.2020   -3.6900    0.5340 hn        1 MOL      0.312182
    162 H73         7.6340   -5.4000   -0.8590 h1        1 MOL      0.094320
    163 H74         5.4410   -5.1660   -1.9940 hc        1 MOL     -0.015018
    164 H75         5.6360   -3.4560   -1.9170 hc        1 MOL     -0.015018
    165 H76         5.5180   -3.5040    0.5040 hc        1 MOL     -0.011973
    166 H77         5.2780   -5.3270    0.4080 hc        1 MOL     -0.011973
    167 N15         8.3710   -3.2920   -3.3510 n         1 MOL     -0.207274
    168 C54         8.6620   -3.1250   -4.7780 c3        1 MOL     -0.113206
    169 H78         9.5370   -2.4860   -4.8970 h1        1 MOL      0.074987
    170 H79         8.8620   -4.0990   -5.2260 h1        1 MOL      0.074987
    171 H80         7.8060   -2.6660   -5.2730 h1        1 MOL      0.074987
    172 H81         8.0980   -2.4630   -2.8500 hn        1 MOL      0.175844
    173 Ca1         0.6870   -3.5350   -0.4230 Ca        1 MOL      1.735487
    174 O23         1.1490   -0.9150   -0.5030 oh        1 MOL     -0.823787
    175 H82         1.3750   -0.2530    0.1570 ho        1 MOL      0.413581
    176 H83         1.3780   -0.5010   -1.3380 ho        1 MOL      0.413581
    177 O24         1.9390   -3.0750   -2.7970 oh        1 MOL     -0.823787
    178 H84         2.0940   -3.8290   -3.3560 ho        1 MOL      0.413581
    179 H85         2.7280   -2.5310   -2.8970 ho        1 MOL      0.413581
    180 O25        -0.7860   -4.4110   -2.6320 oh        1 MOL     -0.823787
    181 H86        -0.5700   -4.8410   -3.4690 ho        1 MOL      0.413581
    182 H87        -1.4690   -3.7790   -2.8630 ho        1 MOL      0.413581
    183 O26        -0.4540   -5.9550    0.3000 oh        1 MOL     -0.823787
    184 H88        -1.1760   -6.3200   -0.2220 ho        1 MOL      0.413581
    185 H89        -0.6580   -6.2000    1.2020 ho        1 MOL      0.413581
@<TRIPOS>BOND
     1    1    2 1   
     2    1    4 1   
     3    1    5 1   
     4    1    6 1   
     5    2    3 2   
     6    2    7 1   
     7    7    8 1   
     8    7   15 1   
     9    8    9 1   
    10    8   11 1   
    11    8   16 1   
    12    9   10 2   
    13    9   19 1   
    14   11   12 1   
    15   11   17 1   
    16   11   18 1   
    17   12   13 1   
    18   12   14 1   
    19   19   20 1   
    20   19   28 1   
    21   20   21 1   
    22   20   23 1   
    23   20   29 1   
    24   21   22 2   
    25   21   41 1   
    26   23   24 1   
    27   23   30 1   
    28   23   31 1   
    29   24   25 1   
    30   24   32 1   
    31   24   33 1   
    32   25   26 1   
    33   25   34 1   
    34   25   35 1   
    35   26   27 1   
    36   26   36 1   
    37   26   37 1   
    38   27   38 1   
    39   27   39 1   
    40   27   40 1   
    41   41   42 1   
    42   41   49 1   
    43   42   43 1   
    44   42   45 1   
    45   42   50 1   
    46   43   44 2   
    47   43   53 1   
    48   45   46 1   
    49   45   51 1   
    50   45   52 1   
    51   46   47 1   
    52   46   48 1   
    53   53   54 1   
    54   53   57 1   
    55   54   55 1   
    56   54   58 1   
    57   54   59 1   
    58   55   56 2   
    59   55   60 1   
    60   60   61 1   
    61   60   68 1   
    62   61   62 1   
    63   61   64 1   
    64   61   69 1   
    65   62   63 2   
    66   62   74 1   
    67   64   65 1   
    68   64   70 1   
    69   64   71 1   
    70   65   66 1   
    71   65   67 2   
    72   66   72 1   
    73   66   73 1   
    74   74   75 1   
    75   74   78 1   
    76   75   76 1   
    77   75   79 1   
    78   75   80 1   
    79   76   77 2   
    80   76   81 1   
    81   81   82 1   
    82   81   93 1   
    83   82   83 1   
    84   82   85 1   
    85   82   94 1   
    86   83   84 2   
    87   83  102 1   
    88   85   86 1   
    89   85   95 1   
    90   85   96 1   
    91   86   87 ar  
    92   86   88 ar  
    93   87   89 ar  
    94   87   97 1   
    95   88   90 ar  
    96   88   98 1   
    97   89   91 ar  
    98   89   99 1   
    99   90   91 ar  
   100   90  100 1   
   101   91   92 1   
   102   92  101 1   
   103  102  103 1   
   104  102  110 1   
   105  103  104 1   
   106  103  106 1   
   107  103  111 1   
   108  104  105 2   
   109  104  121 1   
   110  106  107 1   
   111  106  108 1   
   112  106  112 1   
   113  107  109 1   
   114  107  113 1   
   115  107  114 1   
   116  108  115 1   
   117  108  116 1   
   118  108  117 1   
   119  109  118 1   
   120  109  119 1   
   121  109  120 1   
   122  121  122 1   
   123  121  127 1   
   124  122  123 1   
   125  122  125 1   
   126  122  128 1   
   127  123  124 2   
   128  123  132 1   
   129  125  126 1   
   130  125  129 1   
   131  125  130 1   
   132  126  131 1   
   133  132  133 1   
   134  132  137 1   
   135  133  134 1   
   136  133  136 1   
   137  133  138 1   
   138  134  135 2   
   139  134  142 1   
   140  136  139 1   
   141  136  140 1   
   142  136  141 1   
   143  142  143 1   
   144  142  147 1   
   145  143  144 1   
   146  143  146 1   
   147  143  148 1   
   148  144  145 2   
   149  144  152 1   
   150  146  149 1   
   151  146  150 1   
   152  146  151 1   
   153  152  153 1   
   154  152  161 1   
   155  153  154 1   
   156  153  156 1   
   157  153  162 1   
   158  154  155 2   
   159  154  167 1   
   160  156  157 1   
   161  156  163 1   
   162  156  164 1   
   163  157  158 1   
   164  157  165 1   
   165  157  166 1   
   166  158  159 1   
   167  158  160 1   
   168  167  168 1   
   169  167  172 1   
   170  168  169 1   
   171  168  170 1   
   172  168  171 1   
   173  174  175 1   
   174  174  176 1   
   175  177  178 1   
   176  177  179 1   
   177  180  181 1   
   178  180  182 1   
   179  183  184 1   
   180  183  185 1   
@<TRIPOS>SUBSTRUCTURE
     1 MOL         1 TEMP              0 ****  ****    0 ROOT
