@<TRIPOS>MOLECULE
MOL
  181   177     1     0     0
SMALL
resp


@<TRIPOS>ATOM
      1 C1         10.6140    6.0850   -0.1710 c3        1 MOL     -0.236127
      2 C2          9.7800    4.9590    0.5460 c         1 MOL      0.698415
      3 O1          9.2090    5.1670    1.6520 o         1 MOL     -0.604263
      4 H1         10.0170    6.5240   -0.9700 hc        1 MOL      0.055335
      5 H2         10.8780    6.8580    0.5500 hc        1 MOL      0.055335
      6 H3         11.5220    5.6530   -0.5910 hc        1 MOL      0.055335
      7 N1          9.7480    3.7060    0.1200 n         1 MOL     -0.633785
      8 C3         10.4070    3.0350   -0.9720 c3        1 MOL      0.275357
      9 C4         10.8280    1.6070   -0.6090 c         1 MOL      0.384267
     10 O2         10.6820    1.2590    0.5940 o         1 MOL     -0.476570
     11 C5          9.3180    2.9210   -2.0680 c3        1 MOL     -0.236683
     12 C6          8.1940    1.9880   -1.7730 c         1 MOL      0.853664
     13 O3          7.1530    2.3250   -1.1140 o         1 MOL     -0.782018
     14 O4          8.2480    0.8320   -2.1980 o         1 MOL     -0.782018
     15 H4          9.2150    3.1130    0.7530 hn        1 MOL      0.404368
     16 H5         11.2500    3.5180   -1.4670 h1        1 MOL      0.003441
     17 H6          9.6560    2.5710   -3.0420 hc        1 MOL      0.018779
     18 H7          8.8140    3.8690   -2.2590 hc        1 MOL      0.018779
     19 N2         11.3480    0.8410   -1.4910 n         1 MOL     -0.507354
     20 C7         12.0320   -0.4720   -1.1500 c3        1 MOL      0.098767
     21 C8         11.2200   -1.4180   -0.2800 c         1 MOL      0.394768
     22 O5         11.8980   -2.3520    0.2430 o         1 MOL     -0.557089
     23 C9         13.4560   -0.1940   -0.5980 c3        1 MOL     -0.139230
     24 H8         11.4200    1.2450   -2.4080 hn        1 MOL      0.330350
     25 H9         12.1980   -1.0160   -2.0830 h1        1 MOL      0.073591
     26 H10        14.0310    0.3770   -1.3280 hc        1 MOL      0.051729
     27 H11        13.4870    0.3450    0.3410 hc        1 MOL      0.051729
     28 H12        14.1010   -1.0480   -0.4140 hc        1 MOL      0.051729
     29 N3          9.8970   -1.3940   -0.1460 n         1 MOL     -0.120927
     30 C10         9.0230   -2.3540    0.5340 c3        1 MOL      0.088999
     31 C11         7.8950   -2.9160   -0.4520 c         1 MOL      0.448240
     32 O6          7.7760   -2.3830   -1.5730 o         1 MOL     -0.547726
     33 C12         8.3610   -1.7960    1.8220 c3        1 MOL     -0.050957
     34 C13         7.3690   -0.6360    1.6180 c         1 MOL      0.765470
     35 O7          6.7790   -0.2480    2.6560 o         1 MOL     -0.703556
     36 O8          7.1810   -0.1580    0.4750 o         1 MOL     -0.703556
     37 H13         9.3990   -0.6070   -0.5440 hn        1 MOL      0.127882
     38 H14         9.6610   -3.2320    0.7010 h1        1 MOL     -0.002798
     39 H15         9.1340   -1.5070    2.5180 hc        1 MOL     -0.010875
     40 H16         7.8060   -2.6210    2.2770 hc        1 MOL     -0.010875
     41 N4          7.1120   -3.8360   -0.0120 n         1 MOL     -0.333022
     42 C14         5.9600   -4.4670   -0.6710 c3        1 MOL     -0.394567
     43 C15         4.7100   -3.5470   -0.8940 c         1 MOL      0.924338
     44 O9          4.9210   -2.3430   -0.8880 o         1 MOL     -0.762354
     45 H17         7.1470   -4.0670    0.9640 hn        1 MOL      0.304442
     46 H18         5.6900   -5.3280   -0.0570 h1        1 MOL      0.158616
     47 H19         6.1930   -4.7710   -1.6880 h1        1 MOL      0.158616
     48 N5          3.4710   -4.0630   -0.8640 n         1 MOL     -0.871564
     49 C16         2.3330   -3.1630   -1.2630 c3        1 MOL      0.455142
     50 C17         1.5900   -2.5360   -0.0180 c         1 MOL      0.475817
     51 O10         0.4880   -1.9170   -0.1510 o         1 MOL     -0.382171
     52 C18         1.4600   -3.9880   -2.2220 c3        1 MOL     -0.411710
     53 C19         0.5550   -3.1320   -3.0610 c         1 MOL      0.658790
     54 N6         -0.6960   -3.3000   -3.0570 n         1 MOL     -0.773365
     55 O11         1.0880   -2.2540   -3.7270 o         1 MOL     -0.602374
     56 H20         3.3500   -5.0480   -0.9920 hn        1 MOL      0.373420
     57 H21         2.6950   -2.2630   -1.7540 h1        1 MOL      0.034192
     58 H22         0.8770   -4.6960   -1.6320 hc        1 MOL      0.098799
     59 H23         2.1670   -4.5780   -2.8180 hc        1 MOL      0.098799
     60 H24        -1.1300   -4.1190   -2.6780 hn        1 MOL      0.410961
     61 H25        -1.1720   -2.6770   -3.6890 hn        1 MOL      0.410961
     62 N7          2.2430   -2.5750    1.1750 n         1 MOL     -0.599492
     63 C20         1.6240   -2.0020    2.3820 c3        1 MOL      0.010614
     64 C21         1.6830   -0.4680    2.3170 c         1 MOL      0.525318
     65 O12         2.3460    0.0740    1.4200 o         1 MOL     -0.493663
     66 H26         3.1480   -3.0230    1.1650 hn        1 MOL      0.375001
     67 H27         2.0910   -2.3000    3.3200 h1        1 MOL      0.108942
     68 H28         0.5800   -2.2930    2.5190 h1        1 MOL      0.108942
     69 N8          1.1360    0.3020    3.3360 n         1 MOL     -0.441581
     70 C22         0.3090    0.0160    4.5700 c3        1 MOL     -0.179681
     71 C23        -1.2100   -0.1240    4.3660 c         1 MOL      0.626210
     72 O13        -1.9530   -0.7240    5.1700 o         1 MOL     -0.592371
     73 C24         0.7550    0.9160    5.7680 c3        1 MOL      0.429831
     74 C25         2.2890    0.9110    5.9620 c3        1 MOL     -0.316561
     75 O14         0.4600    2.2150    5.4280 oh        1 MOL     -0.651698
     76 H29         1.1920    1.2820    3.0930 hn        1 MOL      0.262662
     77 H30         0.5170   -0.9840    4.9580 h1        1 MOL      0.069816
     78 H31         0.1400    0.6600    6.6350 h1        1 MOL      0.030395
     79 H32         1.2090    2.6060    4.9780 ho        1 MOL      0.408968
     80 H33         2.4550   -0.0880    6.3640 hc        1 MOL      0.076463
     81 H34         2.7740    1.2340    5.0480 hc        1 MOL      0.076463
     82 H35         2.5110    1.5550    6.8100 hc        1 MOL      0.076463
     83 N9         -1.6300    0.2880    3.1850 n         1 MOL     -0.385933
     84 C26        -3.0320    0.1680    2.6280 c3        1 MOL      0.008589
     85 C27        -3.0200   -0.4440    1.2450 c         1 MOL      0.358786
     86 O15        -1.9980   -0.2860    0.5120 o         1 MOL     -0.533223
     87 C28        -3.9020    1.4430    2.7940 c3        1 MOL      0.221370
     88 C29        -3.0470    2.6200    2.3400 c3        1 MOL     -0.114553
     89 C30        -4.4210    1.5110    4.2930 c3        1 MOL     -0.392201
     90 C31        -3.9040    3.9240    2.3810 c3        1 MOL     -0.200397
     91 H36        -0.9020    0.5450    2.5440 hn        1 MOL      0.242556
     92 H37        -3.4430   -0.6150    3.2610 h1        1 MOL      0.177934
     93 H38        -4.7640    1.3470    2.1280 hc        1 MOL      0.043048
     94 H39        -2.7280    2.4220    1.3120 hc        1 MOL      0.059388
     95 H40        -2.2250    2.8520    3.0250 hc        1 MOL      0.059388
     96 H41        -4.7150    0.5080    4.6010 hc        1 MOL      0.090891
     97 H42        -3.5700    1.7680    4.9110 hc        1 MOL      0.090891
     98 H43        -5.2740    2.1780    4.3650 hc        1 MOL      0.090891
     99 H44        -3.4520    4.8920    2.1590 hc        1 MOL      0.041897
    100 H45        -4.8080    3.8200    1.7840 hc        1 MOL      0.041897
    101 H46        -4.2730    3.9630    3.4030 hc        1 MOL      0.041897
    102 N10        -4.0230   -1.1370    0.7640 n         1 MOL     -0.235066
    103 C32        -5.2220   -1.4390    1.4700 c3        1 MOL     -0.073483
    104 C33        -6.4380   -1.7180    0.5130 c         1 MOL      0.475050
    105 O16        -6.2810   -2.0470   -0.6770 o         1 MOL     -0.451590
    106 C34        -5.0110   -2.6500    2.4040 c3        1 MOL     -0.010143
    107 C35        -4.2100   -3.7830    1.7860 c         1 MOL      0.638109
    108 O17        -4.7710   -4.4620    0.8380 o         1 MOL     -0.709992
    109 O18        -3.0500   -3.9870    2.2120 o         1 MOL     -0.709992
    110 H47        -3.9530   -1.5960   -0.1340 hn        1 MOL      0.299711
    111 H48        -5.5730   -0.5750    2.0350 h1        1 MOL      0.016520
    112 H49        -6.0260   -2.9980    2.6230 hc        1 MOL     -0.040912
    113 H50        -4.5050   -2.3720    3.3240 hc        1 MOL     -0.040912
    114 N11        -7.6190   -1.5410    1.1020 n         1 MOL     -0.491958
    115 C36        -8.8650   -1.3590    0.3790 c3        1 MOL      0.431981
    116 C37        -9.5550   -0.0660    0.8530 c         1 MOL      0.096263
    117 O19        -9.4250    0.2510    2.0500 o         1 MOL     -0.503754
    118 C38        -9.7520   -2.6120    0.3400 c3        1 MOL     -0.292181
    119 C39       -11.0720   -2.3580   -0.5260 ca        1 MOL      0.084323
    120 C40       -12.1840   -1.7230   -0.0050 ca        1 MOL     -0.204295
    121 C41       -11.0320   -2.7360   -1.9140 ca        1 MOL     -0.204295
    122 C42       -13.2340   -1.3070   -0.7940 ca        1 MOL     -0.080193
    123 C43       -12.1930   -2.4560   -2.6790 ca        1 MOL     -0.080193
    124 C44       -13.2870   -1.7700   -2.1070 ca        1 MOL     -0.167640
    125 H51        -7.5160   -1.2010    2.0490 hn        1 MOL      0.290816
    126 H52        -8.5380   -1.2480   -0.6580 h1        1 MOL     -0.036801
    127 H53       -10.0500   -2.8780    1.3530 hc        1 MOL      0.109584
    128 H54        -9.2490   -3.4610   -0.1310 hc        1 MOL      0.109584
    129 H55       -12.2130   -1.4450    1.0390 ha        1 MOL      0.151998
    130 H56       -10.2110   -3.2330   -2.4020 ha        1 MOL      0.151998
    131 H57       -14.0770   -0.7640   -0.3790 ha        1 MOL      0.102620
    132 H58       -12.2580   -2.6090   -3.7480 ha        1 MOL      0.102620
    133 H59       -14.0930   -1.5090   -2.7820 ha        1 MOL      0.104132
    134 N12       -10.0990    0.7360   -0.0540 n         1 MOL      0.229704
    135 C45        -9.8810    0.8630   -1.5340 c3        1 MOL      0.056136
    136 C46        -8.5400    1.5360   -2.0140 c         1 MOL      0.440114
    137 O20        -8.2730    1.4390   -3.2070 o         1 MOL     -0.525212
    138 C47       -11.1100    1.5600   -2.1220 c3        1 MOL     -0.266163
    139 C48       -11.8610    1.9660   -0.8270 c3        1 MOL      0.180135
    140 C49       -10.9370    1.8420    0.3660 c3        1 MOL     -0.197354
    141 H60        -9.9200   -0.1670   -1.8990 h1        1 MOL      0.067144
    142 H61       -10.8590    2.4370   -2.7100 hc        1 MOL      0.088520
    143 H62       -11.6910    0.8280   -2.6830 hc        1 MOL      0.088520
    144 H63       -12.2800    2.9740   -0.8310 hc        1 MOL     -0.049636
    145 H64       -12.6220    1.2130   -0.6490 hc        1 MOL     -0.049636
    146 H65       -10.2620    2.6920    0.4420 h1        1 MOL      0.074983
    147 H66       -11.4170    1.5580    1.3070 h1        1 MOL      0.074983
    148 N13        -7.8230    2.3370   -1.1890 n         1 MOL     -0.394568
    149 C50        -6.7050    3.2240   -1.5410 c3        1 MOL      0.401860
    150 C51        -7.0020    4.5030   -0.8940 c         1 MOL      0.330496
    151 O21        -7.6840    4.5980    0.1570 o         1 MOL     -0.570519
    152 C52        -5.3720    2.6990   -1.0630 c3        1 MOL     -0.329950
    153 C53        -4.8490    1.4010   -1.7020 c3        1 MOL     -0.145377
    154 C54        -4.7920    1.3070   -3.2580 c         1 MOL      0.739790
    155 O22        -4.7200    2.3910   -3.9150 o         1 MOL     -0.720430
    156 O23        -4.5650    0.2050   -3.7830 o         1 MOL     -0.720430
    157 H67        -8.2500    2.3940   -0.2760 hn        1 MOL      0.199098
    158 H68        -6.6710    3.3520   -2.6140 h1        1 MOL      0.031800
    159 H69        -5.4160    2.6790    0.0220 hc        1 MOL      0.097256
    160 H70        -4.6670    3.4850   -1.3320 hc        1 MOL      0.097256
    161 H71        -5.4780    0.6030   -1.3090 hc        1 MOL      0.037119
    162 H72        -3.8220    1.2190   -1.3700 hc        1 MOL      0.037119
    163 N14        -6.5720    5.6070   -1.4770 n         1 MOL     -0.356438
    164 C55        -5.8790    5.7490   -2.7530 c3        1 MOL      0.061396
    165 H73        -6.5670    6.1540   -3.4950 h1        1 MOL      0.018895
    166 H74        -5.0330    6.4260   -2.6340 h1        1 MOL      0.018895
    167 H75        -5.5210    4.7740   -3.0830 h1        1 MOL      0.018895
    168 H76        -6.6580    6.4660   -0.9510 hn        1 MOL      0.263033
    169 Ca1         5.8690    0.0970   -1.6850 Ca        1 MOL      1.753728
    170 O24         5.8700   -1.4890   -3.9190 oh        1 MOL     -0.804145
    171 H77         6.2860   -1.3180   -4.7590 ho        1 MOL      0.402208
    172 H78         5.2780   -2.2190   -4.0820 ho        1 MOL      0.402208
    173 O25         4.6400    1.1190    0.4200 oh        1 MOL     -0.804145
    174 H79         3.7510    0.7780    0.5410 ho        1 MOL      0.402208
    175 H80         5.0560    1.0140    1.2780 ho        1 MOL      0.402208
    176 O26         5.5700    1.8730   -3.8200 oh        1 MOL     -0.804145
    177 H81         4.8360    1.9190   -4.4200 ho        1 MOL      0.402208
    178 H82         6.3390    1.7850   -4.3800 ho        1 MOL      0.402208
    179 O27         3.2970    0.4520   -2.3130 oh        1 MOL     -0.804145
    180 H83         2.4690    0.7380   -1.9470 ho        1 MOL      0.402208
    181 H84         3.1430    0.4170   -3.2580 ho        1 MOL      0.402208
@<TRIPOS>BOND
     1    1    2 1   
     2    1    4 1   
     3    1    5 1   
     4    1    6 1   
     5    2    3 2   
     6    2    7 1   
     7    7    8 1   
     8    7   15 1   
     9    8    9 1   
    10    8   11 1   
    11    8   16 1   
    12    9   10 2   
    13    9   19 1   
    14   11   12 1   
    15   11   17 1   
    16   11   18 1   
    17   12   13 1   
    18   12   14 1   
    19   19   20 1   
    20   19   24 1   
    21   20   21 1   
    22   20   23 1   
    23   20   25 1   
    24   21   22 2   
    25   21   29 1   
    26   23   26 1   
    27   23   27 1   
    28   23   28 1   
    29   29   30 1   
    30   29   37 1   
    31   30   31 1   
    32   30   33 1   
    33   30   38 1   
    34   31   32 2   
    35   31   41 1   
    36   33   34 1   
    37   33   39 1   
    38   33   40 1   
    39   34   35 1   
    40   34   36 1   
    41   41   42 1   
    42   41   45 1   
    43   42   43 1   
    44   42   46 1   
    45   42   47 1   
    46   43   44 2   
    47   43   48 1   
    48   48   49 1   
    49   48   56 1   
    50   49   50 1   
    51   49   52 1   
    52   49   57 1   
    53   50   51 2   
    54   50   62 1   
    55   52   53 1   
    56   52   58 1   
    57   52   59 1   
    58   53   54 1   
    59   53   55 2   
    60   54   60 1   
    61   54   61 1   
    62   62   63 1   
    63   62   66 1   
    64   63   64 1   
    65   63   67 1   
    66   63   68 1   
    67   64   65 2   
    68   64   69 1   
    69   69   70 1   
    70   69   76 1   
    71   70   71 1   
    72   70   73 1   
    73   70   77 1   
    74   71   72 2   
    75   71   83 1   
    76   73   74 1   
    77   73   75 1   
    78   73   78 1   
    79   74   80 1   
    80   74   81 1   
    81   74   82 1   
    82   75   79 1   
    83   83   84 1   
    84   83   91 1   
    85   84   85 1   
    86   84   87 1   
    87   84   92 1   
    88   85   86 2   
    89   85  102 1   
    90   87   88 1   
    91   87   89 1   
    92   87   93 1   
    93   88   90 1   
    94   88   94 1   
    95   88   95 1   
    96   89   96 1   
    97   89   97 1   
    98   89   98 1   
    99   90   99 1   
   100   90  100 1   
   101   90  101 1   
   102  102  103 1   
   103  102  110 1   
   104  103  104 1   
   105  103  106 1   
   106  103  111 1   
   107  104  105 2   
   108  104  114 1   
   109  106  107 1   
   110  106  112 1   
   111  106  113 1   
   112  107  108 1   
   113  107  109 1   
   114  114  115 1   
   115  114  125 1   
   116  115  116 1   
   117  115  118 1   
   118  115  126 1   
   119  116  117 2   
   120  116  134 1   
   121  118  119 1   
   122  118  127 1   
   123  118  128 1   
   124  119  120 ar  
   125  119  121 ar  
   126  120  122 ar  
   127  120  129 1   
   128  121  123 ar  
   129  121  130 1   
   130  122  124 ar  
   131  122  131 1   
   132  123  124 ar  
   133  123  132 1   
   134  124  133 1   
   135  134  135 1   
   136  134  140 1   
   137  135  136 1   
   138  135  138 1   
   139  135  141 1   
   140  136  137 2   
   141  136  148 1   
   142  138  139 1   
   143  138  142 1   
   144  138  143 1   
   145  139  140 1   
   146  139  144 1   
   147  139  145 1   
   148  140  146 1   
   149  140  147 1   
   150  148  149 1   
   151  148  157 1   
   152  149  150 1   
   153  149  152 1   
   154  149  158 1   
   155  150  151 2   
   156  150  163 1   
   157  152  153 1   
   158  152  159 1   
   159  152  160 1   
   160  153  154 1   
   161  153  161 1   
   162  153  162 1   
   163  154  155 1   
   164  154  156 1   
   165  163  164 1   
   166  163  168 1   
   167  164  165 1   
   168  164  166 1   
   169  164  167 1   
   170  170  171 1   
   171  170  172 1   
   172  173  174 1   
   173  173  175 1   
   174  176  177 1   
   175  176  178 1   
   176  179  180 1   
   177  179  181 1   
@<TRIPOS>SUBSTRUCTURE
     1 MOL         1 TEMP              0 ****  ****    0 ROOT
