@<TRIPOS>MOLECULE
MOL
  192   187     1     0     0
SMALL
resp


@<TRIPOS>ATOM
      1 C1          1.3830    8.2140   -2.0600 c3        1 MOL     -0.257322
      2 C2          1.3310    6.6480   -2.1520 c         1 MOL      0.559963
      3 O1          0.8380    6.1180   -3.1890 o         1 MOL     -0.543763
      4 H1          0.9130    8.5400   -1.1320 hc        1 MOL      0.067945
      5 H2          2.4210    8.5460   -2.0770 hc        1 MOL      0.067945
      6 H3          0.8490    8.6460   -2.9070 hc        1 MOL      0.067945
      7 N1          1.9590    5.9260   -1.1930 n         1 MOL     -0.332312
      8 C3          2.1560    4.5180   -1.2900 c3        1 MOL     -0.004346
      9 C4          0.9880    3.6710   -0.6730 c         1 MOL      0.227056
     10 O2          0.9370    2.4460   -0.9450 o         1 MOL     -0.391722
     11 C5          3.4650    4.0460   -0.5870 c3        1 MOL     -0.233405
     12 C6          3.5800    4.2890    0.9290 c         1 MOL      0.697687
     13 O3          3.7580    5.4320    1.3470 o         1 MOL     -0.738623
     14 O4          3.3730    3.3520    1.7280 o         1 MOL     -0.738623
     15 H4          2.3490    6.5050   -0.4630 hn        1 MOL      0.227155
     16 H5          2.1490    4.2180   -2.3410 h1        1 MOL      0.136098
     17 H6          4.2800    4.5460   -1.1050 hc        1 MOL      0.059432
     18 H7          3.6850    2.9990   -0.8220 hc        1 MOL      0.059432
     19 N2          0.1320    4.3140    0.1220 n         1 MOL     -0.157921
     20 C7         -1.0710    3.7940    0.7590 c3        1 MOL      0.057864
     21 C8         -2.1770    3.6740   -0.2770 c         1 MOL      0.549317
     22 O5         -2.3940    4.6360   -1.0110 o         1 MOL     -0.535438
     23 C9         -1.5690    4.6760    1.9410 c3        1 MOL     -0.356942
     24 C10        -0.5480    4.5400    3.0560 c3        1 MOL      0.228459
     25 C11        -0.9120    5.2090    4.3620 c3        1 MOL     -0.053805
     26 C12         0.0670    5.0870    5.5420 c3        1 MOL     -0.062398
     27 N3          1.1690    6.0770    5.5830 n4        1 MOL     -0.418004
     28 H8          0.2480    5.3140    0.0480 hn        1 MOL      0.191227
     29 H9         -0.7900    2.8370    1.1990 h1        1 MOL      0.111753
     30 H10        -2.5160    4.2690    2.2770 hc        1 MOL      0.104433
     31 H11        -1.6210    5.6830    1.5150 hc        1 MOL      0.104433
     32 H12         0.4390    4.8920    2.7490 hc        1 MOL     -0.013704
     33 H13        -0.5190    3.4730    3.2720 hc        1 MOL     -0.013704
     34 H14        -1.8430    4.7620    4.6940 hc        1 MOL      0.030047
     35 H15        -1.0310    6.2680    4.1130 hc        1 MOL      0.030047
     36 H16         0.2770    4.0330    5.7250 hx        1 MOL      0.118342
     37 H17        -0.5500    5.3110    6.4070 hx        1 MOL      0.118342
     38 H18         1.6910    6.0670    6.4390 hn        1 MOL      0.349265
     39 H19         1.8380    5.8170    4.8720 hn        1 MOL      0.349265
     40 H20         0.8460    7.0070    5.3640 hn        1 MOL      0.349265
     41 N4         -2.9350    2.5160   -0.4130 n         1 MOL     -0.563332
     42 C13        -2.9340    1.3740    0.6180 c3        1 MOL      0.215068
     43 C14        -3.2000    1.8580    2.0700 c         1 MOL      0.259590
     44 O6         -2.4070    1.9210    3.0060 o         1 MOL     -0.465916
     45 C15        -1.7210    0.4050    0.4150 c3        1 MOL     -0.123611
     46 C16        -1.4610   -0.0480   -0.9270 c         1 MOL      0.799731
     47 O7         -2.3320   -0.0990   -1.8330 o         1 MOL     -0.869691
     48 O8         -0.2890   -0.1570   -1.3780 o         1 MOL     -0.869691
     49 H21        -3.4920    2.4430   -1.2550 hn        1 MOL      0.332262
     50 H22        -3.7960    0.7470    0.3700 h1        1 MOL      0.069185
     51 H23        -1.9330   -0.4600    1.0440 hc        1 MOL      0.058596
     52 H24        -0.8110    0.8340    0.8220 hc        1 MOL      0.058596
     53 N5         -4.4890    2.2120    2.2550 n         1 MOL     -0.209490
     54 C17        -5.5620    2.2330    1.2960 c3        1 MOL     -0.059168
     55 C18        -6.8170    2.7310    1.8660 c         1 MOL      0.637631
     56 O9         -6.8930    2.9130    3.0700 o         1 MOL     -0.570286
     57 H25        -4.7560    2.5120    3.1800 hn        1 MOL      0.240608
     58 H26        -5.8010    1.2170    0.9630 h1        1 MOL      0.040843
     59 H27        -5.2780    2.6830    0.3480 h1        1 MOL      0.040843
     60 N6         -7.9050    2.8900    1.1180 n         1 MOL     -0.652209
     61 C19        -8.0930    2.3320   -0.2320 c3        1 MOL      0.225653
     62 C20        -8.1660    0.7900   -0.2130 c         1 MOL      0.594982
     63 O10        -8.9560    0.1390    0.5100 o         1 MOL     -0.548590
     64 C21        -9.3510    2.9120   -0.9640 c3        1 MOL     -0.388255
     65 C22        -9.7570    2.4000   -2.3280 c         1 MOL      0.744256
     66 O11       -10.8090    2.9210   -2.8490 o         1 MOL     -0.670078
     67 O12        -9.0290    1.6150   -2.9200 o         1 MOL     -0.670078
     68 H28        -8.7400    3.1860    1.6190 hn        1 MOL      0.358310
     69 H29        -7.2780    2.5900   -0.8970 h1        1 MOL      0.026228
     70 H30        -9.1560    3.9590   -1.1760 hc        1 MOL      0.097160
     71 H31       -10.2000    2.7550   -0.2920 hc        1 MOL      0.097160
     72 N7         -7.2690    0.1850   -0.9940 n         1 MOL     -0.389711
     73 C23        -7.2460   -1.3180   -1.1240 c3        1 MOL     -0.066208
     74 C24        -6.4780   -2.0750    0.0250 c         1 MOL      0.603967
     75 O13        -6.0880   -1.5340    1.0730 o         1 MOL     -0.525900
     76 H32        -6.6620    0.7410   -1.5820 hn        1 MOL      0.263678
     77 H33        -6.9210   -1.6090   -2.1290 h1        1 MOL      0.090447
     78 H34        -8.2960   -1.6150   -1.1660 h1        1 MOL      0.090447
     79 N8         -6.1500   -3.3630   -0.2100 n         1 MOL     -0.621393
     80 C25        -5.3790   -4.1640    0.7960 c3        1 MOL      0.181822
     81 C26        -3.8680   -3.8450    0.7520 c         1 MOL      0.773178
     82 O14        -3.2810   -3.4410   -0.2320 o         1 MOL     -0.677296
     83 C27        -5.5450   -5.6360    0.4240 c3        1 MOL      0.300753
     84 C28        -4.9580   -6.1970   -0.9250 c3        1 MOL     -0.369141
     85 O15        -6.9490   -5.9770    0.4930 oh        1 MOL     -0.620791
     86 H35        -6.4120   -3.7830   -1.0950 hn        1 MOL      0.302147
     87 H36        -5.7430   -4.0120    1.8140 h1        1 MOL      0.094319
     88 H37        -5.0440   -6.0680    1.2890 h1        1 MOL     -0.025085
     89 H38        -7.1330   -6.5910   -0.2300 ho        1 MOL      0.397599
     90 H39        -4.6250   -7.2340   -0.8070 hc        1 MOL      0.098031
     91 H40        -5.7020   -6.2200   -1.7150 hc        1 MOL      0.098031
     92 H41        -4.0430   -5.6760   -1.2190 hc        1 MOL      0.098031
     93 N9         -3.2230   -3.9220    1.8780 n         1 MOL     -0.574246
     94 C29        -1.7360   -3.6910    2.0530 c3        1 MOL     -0.017552
     95 C30        -0.8170   -4.7790    1.3600 c         1 MOL      0.690812
     96 O16        -1.1310   -5.9690    1.4820 o         1 MOL     -0.530158
     97 C31        -1.4450   -3.4870    3.5730 c3        1 MOL      0.056743
     98 C32        -1.8590   -2.0620    4.1090 c3        1 MOL      0.088996
     99 C33         0.0380   -3.6030    4.0300 c3        1 MOL     -0.504095
    100 C34        -3.4280   -1.8280    3.9920 c3        1 MOL     -0.243073
    101 H42        -3.6760   -4.3080    2.6890 hn        1 MOL      0.275473
    102 H43        -1.4120   -2.7750    1.5580 h1        1 MOL      0.012311
    103 H44        -1.9670   -4.2930    4.0920 hc        1 MOL      0.076710
    104 H45        -1.2980   -1.2100    3.7160 hc        1 MOL      0.012328
    105 H46        -1.6930   -2.1210    5.1790 hc        1 MOL      0.012328
    106 H47         0.3970   -4.5920    3.7610 hc        1 MOL      0.127406
    107 H48         0.6980   -2.8460    3.6070 hc        1 MOL      0.127406
    108 H49         0.0590   -3.5920    5.1190 hc        1 MOL      0.127406
    109 H50        -3.6930   -1.0190    4.6830 hc        1 MOL      0.059875
    110 H51        -3.7150   -1.5190    2.9930 hc        1 MOL      0.059875
    111 H52        -4.0370   -2.7030    4.2250 hc        1 MOL      0.059875
    112 N10         0.3100   -4.3360    0.6650 n         1 MOL     -0.612361
    113 C35         1.3330   -5.2560    0.1190 c3        1 MOL      0.084844
    114 C36         2.9070   -4.9320    0.3140 c         1 MOL      0.234199
    115 O17         3.8060   -5.7920    0.1580 o         1 MOL     -0.452017
    116 C37         1.1670   -5.5120   -1.3840 c3        1 MOL      0.339788
    117 C38         1.7010   -4.3840   -2.2750 c3        1 MOL     -0.293875
    118 O18        -0.1940   -5.8320   -1.7580 oh        1 MOL     -0.642362
    119 H53         0.2590   -3.3740    0.3580 hn        1 MOL      0.414778
    120 H54         1.1130   -6.2180    0.5710 h1        1 MOL      0.109539
    121 H55         1.6940   -6.4530   -1.5710 h1        1 MOL      0.010494
    122 H56        -0.1130   -6.2250   -2.6340 ho        1 MOL      0.411593
    123 H57         1.4810   -3.3680   -1.9730 hc        1 MOL      0.067565
    124 H58         2.7800   -4.5130   -2.3450 hc        1 MOL      0.067565
    125 H59         1.3320   -4.5010   -3.2950 hc        1 MOL      0.067565
    126 N11         3.1490   -3.7430    0.8150 n         1 MOL     -0.221058
    127 C39         4.4240   -3.3100    1.3690 c3        1 MOL     -0.012706
    128 C40         5.6300   -3.1560    0.4040 c         1 MOL      0.427488
    129 O19         5.5900   -3.5640   -0.7540 o         1 MOL     -0.399524
    130 C41         4.7990   -4.0370    2.7090 c3        1 MOL      0.344610
    131 C42         3.5760   -4.4170    3.6490 c3        1 MOL     -0.311050
    132 O20         5.7190   -3.4630    3.5440 oh        1 MOL     -0.697851
    133 H60         2.4180   -3.0500    0.8040 hn        1 MOL      0.201362
    134 H61         4.2320   -2.3290    1.8060 h1        1 MOL      0.108341
    135 H62         5.1570   -5.0240    2.4150 h1        1 MOL      0.023312
    136 H63         5.8700   -3.9850    4.3410 ho        1 MOL      0.437481
    137 H64         2.7330   -4.7680    3.0570 hc        1 MOL      0.080047
    138 H65         3.8720   -5.2320    4.3030 hc        1 MOL      0.080047
    139 H66         3.2050   -3.5470    4.1830 hc        1 MOL      0.080047
    140 N12         6.6590   -2.3830    0.8180 n         1 MOL     -0.440563
    141 C43         7.7930   -1.9310    0.0040 c3        1 MOL      0.075610
    142 C44         7.2480   -1.1150   -1.2280 c         1 MOL      0.439565
    143 O21         7.8870   -1.2590   -2.3090 o         1 MOL     -0.545712
    144 C45         8.8330   -1.0780    0.8190 c3        1 MOL     -0.098333
    145 C46         8.2100    0.1220    1.4800 c3        1 MOL      0.249835
    146 C47         9.2520    0.7990    2.3600 c3        1 MOL     -0.006659
    147 C48         8.9210    2.1820    2.8180 c3        1 MOL      0.038319
    148 N13         9.8620    2.5340    3.8730 n4        1 MOL     -0.243636
    149 H67         6.7410   -2.2140    1.8110 hn        1 MOL      0.273739
    150 H68         8.3560   -2.7810   -0.3850 h1        1 MOL      0.091253
    151 H69         9.6770   -0.8940    0.1590 hc        1 MOL      0.025314
    152 H70         9.1680   -1.6870    1.6720 hc        1 MOL      0.025314
    153 H71         7.3490   -0.1460    2.0800 hc        1 MOL     -0.066225
    154 H72         7.8620    0.8630    0.7640 hc        1 MOL     -0.066225
    155 H73        10.1920    0.8180    1.8060 hc        1 MOL     -0.005196
    156 H74         9.4070    0.1910    3.2540 hc        1 MOL     -0.005196
    157 H75         7.9170    2.3670    3.1850 hx        1 MOL      0.099479
    158 H76         9.1530    2.8630    2.0060 hx        1 MOL      0.099479
    159 H77        10.8020    2.3250    3.5680 hn        1 MOL      0.248208
    160 H78         9.8720    3.5140    4.0780 hn        1 MOL      0.248208
    161 H79         9.6490    2.0100    4.7080 hn        1 MOL      0.248208
    162 N14         6.0170   -0.5620   -1.1180 n         1 MOL     -0.093688
    163 C49         5.4170    0.1440   -2.2440 c3        1 MOL     -0.309443
    164 C50         6.0180    1.5960   -2.4780 c         1 MOL      0.557651
    165 O22         6.1070    2.3510   -1.5100 o         1 MOL     -0.526520
    166 C51         3.8400    0.2350   -2.0700 c3        1 MOL      0.207032
    167 C52         3.0370   -1.0630   -2.2630 c3        1 MOL     -0.033539
    168 C53         2.7160   -1.2680   -3.7490 c         1 MOL      0.682506
    169 O23         3.6760   -1.1830   -4.6140 o         1 MOL     -0.726986
    170 O24         1.5130   -1.4200   -4.0530 o         1 MOL     -0.726986
    171 H80         5.5210   -0.5980   -0.2340 hn        1 MOL      0.142309
    172 H81         5.7180   -0.3980   -3.1410 h1        1 MOL      0.154641
    173 H82         3.4570    0.9890   -2.7510 hc        1 MOL      0.005642
    174 H83         3.6940    0.4820   -1.0130 hc        1 MOL      0.005642
    175 H84         2.1780   -0.8290   -1.6470 hc        1 MOL      0.000203
    176 H85         3.6260   -1.9240   -1.9480 hc        1 MOL      0.000203
    177 N15         6.4400    1.9400   -3.6940 n         1 MOL     -0.377009
    178 C54         7.3370    3.1410   -3.9260 c3        1 MOL     -0.180036
    179 H86         7.9630    2.9630   -4.8010 h1        1 MOL      0.099383
    180 H87         6.7250    4.0260   -4.0930 h1        1 MOL      0.099383
    181 H88         7.9710    3.2970   -3.0530 h1        1 MOL      0.099383
    182 H89         6.1890    1.3850   -4.4910 hn        1 MOL      0.313810
    183 Ca1        -0.8410   -0.7700   -3.8730 Ca        1 MOL      1.796020
    184 O25         0.2500    1.5570   -3.4850 oh        1 MOL     -0.931429
    185 H90         0.5320    1.5610   -2.5710 ho        1 MOL      0.451617
    186 H91        -0.5250    2.1100   -3.4920 ho        1 MOL      0.451617
    187 O26        -1.2640   -2.9990   -2.1990 oh        1 MOL     -0.931429
    188 H92        -1.0020   -3.8820   -1.9320 ho        1 MOL      0.451617
    189 H93        -2.0520   -2.8230   -1.6870 ho        1 MOL      0.451617
    190 O27        -0.1050   -0.5010   -6.6190 oh        1 MOL     -0.931429
    191 H94         0.7210   -0.9650   -6.6880 ho        1 MOL      0.451617
    192 H95        -0.2000   -0.0440   -7.4570 ho        1 MOL      0.451617
@<TRIPOS>BOND
     1    1    2 1   
     2    1    4 1   
     3    1    5 1   
     4    1    6 1   
     5    2    3 2   
     6    2    7 1   
     7    7    8 1   
     8    7   15 1   
     9    8    9 1   
    10    8   11 1   
    11    8   16 1   
    12    9   10 2   
    13    9   19 1   
    14   11   12 1   
    15   11   17 1   
    16   11   18 1   
    17   12   13 1   
    18   12   14 1   
    19   19   20 1   
    20   19   28 1   
    21   20   21 1   
    22   20   23 1   
    23   20   29 1   
    24   21   22 2   
    25   21   41 1   
    26   23   24 1   
    27   23   30 1   
    28   23   31 1   
    29   24   25 1   
    30   24   32 1   
    31   24   33 1   
    32   25   26 1   
    33   25   34 1   
    34   25   35 1   
    35   26   27 1   
    36   26   36 1   
    37   26   37 1   
    38   27   38 1   
    39   27   39 1   
    40   27   40 1   
    41   41   42 1   
    42   41   49 1   
    43   42   43 1   
    44   42   45 1   
    45   42   50 1   
    46   43   44 2   
    47   43   53 1   
    48   45   46 1   
    49   45   51 1   
    50   45   52 1   
    51   46   47 1   
    52   46   48 1   
    53   53   54 1   
    54   53   57 1   
    55   54   55 1   
    56   54   58 1   
    57   54   59 1   
    58   55   56 2   
    59   55   60 1   
    60   60   61 1   
    61   60   68 1   
    62   61   62 1   
    63   61   64 1   
    64   61   69 1   
    65   62   63 2   
    66   62   72 1   
    67   64   65 1   
    68   64   70 1   
    69   64   71 1   
    70   65   66 1   
    71   65   67 1   
    72   72   73 1   
    73   72   76 1   
    74   73   74 1   
    75   73   77 1   
    76   73   78 1   
    77   74   75 2   
    78   74   79 1   
    79   79   80 1   
    80   79   86 1   
    81   80   81 1   
    82   80   83 1   
    83   80   87 1   
    84   81   82 2   
    85   81   93 1   
    86   83   84 1   
    87   83   85 1   
    88   83   88 1   
    89   84   90 1   
    90   84   91 1   
    91   84   92 1   
    92   85   89 1   
    93   93   94 1   
    94   93  101 1   
    95   94   95 1   
    96   94   97 1   
    97   94  102 1   
    98   95   96 2   
    99   95  112 1   
   100   97   98 1   
   101   97   99 1   
   102   97  103 1   
   103   98  100 1   
   104   98  104 1   
   105   98  105 1   
   106   99  106 1   
   107   99  107 1   
   108   99  108 1   
   109  100  109 1   
   110  100  110 1   
   111  100  111 1   
   112  112  113 1   
   113  112  119 1   
   114  113  114 1   
   115  113  116 1   
   116  113  120 1   
   117  114  115 2   
   118  114  126 1   
   119  116  117 1   
   120  116  118 1   
   121  116  121 1   
   122  117  123 1   
   123  117  124 1   
   124  117  125 1   
   125  118  122 1   
   126  126  127 1   
   127  126  133 1   
   128  127  128 1   
   129  127  130 1   
   130  127  134 1   
   131  128  129 2   
   132  128  140 1   
   133  130  131 1   
   134  130  132 1   
   135  130  135 1   
   136  131  137 1   
   137  131  138 1   
   138  131  139 1   
   139  132  136 1   
   140  140  141 1   
   141  140  149 1   
   142  141  142 1   
   143  141  144 1   
   144  141  150 1   
   145  142  143 2   
   146  142  162 1   
   147  144  145 1   
   148  144  151 1   
   149  144  152 1   
   150  145  146 1   
   151  145  153 1   
   152  145  154 1   
   153  146  147 1   
   154  146  155 1   
   155  146  156 1   
   156  147  148 1   
   157  147  157 1   
   158  147  158 1   
   159  148  159 1   
   160  148  160 1   
   161  148  161 1   
   162  162  163 1   
   163  162  171 1   
   164  163  164 1   
   165  163  166 1   
   166  163  172 1   
   167  164  165 2   
   168  164  177 1   
   169  166  167 1   
   170  166  173 1   
   171  166  174 1   
   172  167  168 1   
   173  167  175 1   
   174  167  176 1   
   175  168  169 1   
   176  168  170 1   
   177  177  178 1   
   178  177  182 1   
   179  178  179 1   
   180  178  180 1   
   181  178  181 1   
   182  184  185 1   
   183  184  186 1   
   184  187  188 1   
   185  187  189 1   
   186  190  191 1   
   187  190  192 1   
@<TRIPOS>SUBSTRUCTURE
     1 MOL         1 TEMP              0 ****  ****    0 ROOT
