@<TRIPOS>MOLECULE
MOL
  182   178     1     0     0
SMALL
resp


@<TRIPOS>ATOM
      1 C1         -3.4450   -1.0680    6.1230 c3        1 MOL     -0.177571
      2 C2         -3.0660   -1.2220    4.5880 c         1 MOL      0.674658
      3 O1         -3.9940   -1.1700    3.7430 o         1 MOL     -0.566086
      4 H1         -2.7500   -0.3760    6.6000 hc        1 MOL      0.045308
      5 H2         -4.4600   -0.6800    6.2100 hc        1 MOL      0.045308
      6 H3         -3.3820   -2.0400    6.6120 hc        1 MOL      0.045308
      7 N1         -1.7910   -1.4550    4.2840 n         1 MOL     -0.539429
      8 C3         -1.3000   -1.7480    2.9490 c3        1 MOL     -0.247602
      9 C4         -1.7380   -3.1260    2.3150 c         1 MOL      0.830093
     10 O2         -1.8390   -4.1290    2.9890 o         1 MOL     -0.574696
     11 C5          0.2310   -1.7320    3.0550 c3        1 MOL      0.001373
     12 C6          0.8770   -1.8160    1.6960 c         1 MOL      0.688792
     13 O3          2.1160   -1.6400    1.6540 o         1 MOL     -0.789189
     14 O4          0.2830   -1.8500    0.6440 o         1 MOL     -0.789189
     15 H4         -1.0940   -1.2990    5.0050 hn        1 MOL      0.336486
     16 H5         -1.5340   -0.9680    2.2190 h1        1 MOL      0.057703
     17 H6          0.4130   -2.5950    3.6920 hc        1 MOL      0.007467
     18 H7          0.5220   -0.7770    3.4940 hc        1 MOL      0.007467
     19 N2         -1.9700   -3.1830    1.0070 n         1 MOL     -0.542514
     20 C7         -2.7190   -4.2050    0.2440 c3        1 MOL      0.031899
     21 C8         -1.7060   -5.0190   -0.5180 c         1 MOL      0.488408
     22 O5         -1.9470   -6.2420   -0.5500 o         1 MOL     -0.548420
     23 C9         -3.7640   -3.5600   -0.6720 c3        1 MOL      0.209293
     24 C10        -5.0270   -4.4620   -0.8780 c3        1 MOL     -0.174045
     25 C11        -6.2380   -3.7640   -1.4780 c3        1 MOL      0.216453
     26 C12        -7.4240   -4.7180   -1.5540 c3        1 MOL     -0.045275
     27 N3         -8.5400   -4.0980   -2.3630 n4        1 MOL     -0.350895
     28 H8         -1.7970   -2.3360    0.4920 hn        1 MOL      0.302093
     29 H9         -3.3650   -4.8540    0.8300 h1        1 MOL      0.077501
     30 H10        -3.3810   -3.2500   -1.6440 hc        1 MOL     -0.025336
     31 H11        -4.1270   -2.6890   -0.1290 hc        1 MOL     -0.025336
     32 H12        -5.4790   -4.7960    0.0550 hc        1 MOL      0.036940
     33 H13        -4.8110   -5.2930   -1.5510 hc        1 MOL      0.036940
     34 H14        -5.9690   -3.3670   -2.4580 hc        1 MOL     -0.031548
     35 H15        -6.5130   -2.9220   -0.8530 hc        1 MOL     -0.031548
     36 H16        -7.8180   -4.9650   -0.5650 hx        1 MOL      0.104479
     37 H17        -7.0760   -5.6720   -1.9230 hx        1 MOL      0.104479
     38 H18        -9.2150   -4.8430   -2.4620 hn        1 MOL      0.302366
     39 H19        -9.0260   -3.4090   -1.8080 hn        1 MOL      0.302366
     40 H20        -8.3610   -3.6870   -3.2750 hn        1 MOL      0.302366
     41 N4         -0.6270   -4.4090   -1.0500 n         1 MOL     -0.472961
     42 C13         0.4890   -5.2780   -1.5470 c3        1 MOL      0.173886
     43 C14         1.4680   -5.7130   -0.4840 c         1 MOL      0.458755
     44 O6          2.1920   -6.5870   -0.8150 o         1 MOL     -0.512543
     45 C15         1.0730   -4.7270   -2.8430 c3        1 MOL     -0.300321
     46 C16         1.6730   -3.3170   -2.7530 c         1 MOL      0.699572
     47 O7          1.7490   -2.6150   -1.6820 o         1 MOL     -0.676174
     48 O8          2.1320   -2.8780   -3.8310 o         1 MOL     -0.676174
     49 H21        -0.3710   -3.4420   -0.9120 hn        1 MOL      0.234202
     50 H22         0.0360   -6.2450   -1.7670 h1        1 MOL      0.061181
     51 H23         0.2770   -4.7310   -3.5800 hc        1 MOL      0.095872
     52 H24         1.8400   -5.4560   -3.0950 hc        1 MOL      0.095872
     53 N5          1.6280   -4.9600    0.6160 n         1 MOL     -0.167494
     54 C17         2.6870   -5.0670    1.5970 c3        1 MOL     -0.281854
     55 C18         4.1130   -4.5560    1.1530 c         1 MOL      0.638080
     56 O9          5.0760   -4.9200    1.8600 o         1 MOL     -0.566240
     57 H25         1.0250   -4.1510    0.6800 hn        1 MOL      0.178794
     58 H26         2.6850   -6.1330    1.8390 h1        1 MOL      0.133706
     59 H27         2.4250   -4.6060    2.5500 h1        1 MOL      0.133706
     60 N6          4.1880   -3.7100    0.0570 n         1 MOL     -0.336447
     61 C19         5.4260   -3.2470   -0.5330 c3        1 MOL      0.381681
     62 C20         5.2580   -1.7340   -0.7560 c         1 MOL      0.240381
     63 O10         4.1840   -1.1240   -0.8390 o         1 MOL     -0.333530
     64 C21         5.8660   -3.9980   -1.7560 c3        1 MOL     -0.470420
     65 C22         6.1580   -5.4810   -1.4340 c         1 MOL      0.669922
     66 N7          7.2420   -5.7710   -0.7260 n         1 MOL     -0.775215
     67 O11         5.3900   -6.2790   -1.8410 o         1 MOL     -0.494971
     68 H28         3.2950   -3.4540   -0.3340 hn        1 MOL      0.209172
     69 H29         6.1870   -3.3170    0.2360 h1        1 MOL     -0.056272
     70 H30         6.6470   -3.4440   -2.2660 hc        1 MOL      0.130471
     71 H31         4.9850   -3.9460   -2.3870 hc        1 MOL      0.130471
     72 H32         7.9300   -5.0740   -0.4930 hn        1 MOL      0.354735
     73 H33         7.5190   -6.7170   -0.5110 hn        1 MOL      0.354735
     74 N8          6.3710   -1.0470   -0.9890 n         1 MOL     -0.225631
     75 C23         6.5190    0.3440   -1.3880 c3        1 MOL     -0.342680
     76 C24         5.9950    1.3040   -0.3180 c         1 MOL      0.676023
     77 O12         6.1420    1.0720    0.8320 o         1 MOL     -0.494290
     78 H34         7.2370   -1.5570   -0.9990 hn        1 MOL      0.256716
     79 H35         6.0110    0.4310   -2.3510 h1        1 MOL      0.141898
     80 H36         7.5890    0.5150   -1.5090 h1        1 MOL      0.141898
     81 N9          5.4190    2.4200   -0.7650 n         1 MOL     -0.590265
     82 C25         4.6080    3.3530    0.0030 c3        1 MOL      0.208236
     83 C26         3.4710    2.6580    0.7370 c         1 MOL      0.525521
     84 O13         3.2110    1.4820    0.4910 o         1 MOL     -0.469454
     85 C27         4.1220    4.4560   -0.8560 c3        1 MOL     -0.093830
     86 C28         5.1810    5.3860   -1.3550 ca        1 MOL      0.020475
     87 C29         6.0820    5.9070   -0.4160 ca        1 MOL     -0.114529
     88 C30         5.3510    5.7650   -2.7210 ca        1 MOL     -0.114529
     89 C31         7.1310    6.7410   -0.8410 ca        1 MOL     -0.318259
     90 C32         6.4570    6.5420   -3.1230 ca        1 MOL     -0.318259
     91 C33         7.3710    7.0430   -2.1320 ca        1 MOL      0.403998
     92 O14         8.3540    7.9280   -2.4690 oh        1 MOL     -0.472379
     93 H37         5.3720    2.5800   -1.7550 hn        1 MOL      0.263206
     94 H38         5.1750    3.8480    0.8010 h1        1 MOL      0.066071
     95 H39         3.4200    5.0580   -0.2770 hc        1 MOL      0.028556
     96 H40         3.6110    3.9930   -1.7060 hc        1 MOL      0.028556
     97 H41         6.0060    5.7480    0.6500 ha        1 MOL      0.118849
     98 H42         4.5280    5.5420   -3.3960 ha        1 MOL      0.118849
     99 H43         7.7270    7.1700   -0.0490 ha        1 MOL      0.170802
    100 H44         6.5450    6.8050   -4.1670 ha        1 MOL      0.170802
    101 H45         8.4950    7.7970   -3.4080 ho        1 MOL      0.353281
    102 N10         2.8390    3.3070    1.7790 n         1 MOL     -0.644599
    103 C34         1.9870    2.8230    2.8370 c3        1 MOL      0.216332
    104 C35         0.6340    2.2000    2.4450 c         1 MOL      0.319239
    105 O15         0.6440    1.3210    1.6290 o         1 MOL     -0.229380
    106 C36         2.8460    1.8530    3.7920 c3        1 MOL      0.178549
    107 C37         2.1860    1.2990    5.0470 c3        1 MOL     -0.230727
    108 C38         4.1710    2.5390    4.2020 c3        1 MOL     -0.503108
    109 C39         1.9050    2.4570    6.0120 c3        1 MOL     -0.363100
    110 H46         3.1600    4.2540    1.8890 hn        1 MOL      0.303285
    111 H47         1.7310    3.7130    3.3980 h1        1 MOL      0.030354
    112 H48         3.1830    0.9560    3.2690 hc        1 MOL      0.058140
    113 H49         2.8200    0.6100    5.6010 hc        1 MOL      0.123459
    114 H50         1.2090    0.9140    4.7530 hc        1 MOL      0.123459
    115 H51         4.6120    1.9180    4.9760 hc        1 MOL      0.137516
    116 H52         4.8000    2.4890    3.3080 hc        1 MOL      0.137516
    117 H53         4.1260    3.5400    4.6190 hc        1 MOL      0.137516
    118 H54         2.8820    2.7930    6.3390 hc        1 MOL      0.099576
    119 H55         1.2870    3.1500    5.4420 hc        1 MOL      0.099576
    120 H56         1.2970    2.0540    6.8190 hc        1 MOL      0.099576
    121 N11        -0.4440    2.7190    3.0740 n         1 MOL     -0.530728
    122 C40        -1.7210    2.0870    3.0580 c3        1 MOL     -0.078607
    123 C41        -2.4110    2.1270    1.6270 c         1 MOL      0.401788
    124 O16        -3.3890    1.4100    1.4380 o         1 MOL     -0.474024
    125 C42        -2.6060    2.7820    4.1850 c3        1 MOL     -0.051361
    126 O17        -1.9250    2.8100    5.3990 oh        1 MOL     -0.547127
    127 H57        -0.2560    3.3820    3.8190 hn        1 MOL      0.322979
    128 H58        -1.6730    1.0340    3.3320 h1        1 MOL      0.271812
    129 H59        -3.4640    2.1970    4.5080 h1        1 MOL      0.132329
    130 H60        -3.0090    3.7610    3.9070 h1        1 MOL      0.132329
    131 H61        -1.6620    3.7170    5.5810 ho        1 MOL      0.378162
    132 N12        -1.9350    2.8820    0.5910 n         1 MOL     -0.392288
    133 C43        -2.4230    2.6730   -0.7740 c3        1 MOL      0.069911
    134 C44        -1.9470    1.3290   -1.4140 c         1 MOL      0.766907
    135 O18        -0.8970    0.7940   -1.0740 o         1 MOL     -0.606997
    136 C45        -1.9420    3.8450   -1.7050 c3        1 MOL     -0.207408
    137 H62        -1.2020    3.5420    0.7650 hn        1 MOL      0.273781
    138 H63        -3.5020    2.5660   -0.7100 h1        1 MOL      0.077948
    139 H64        -2.7350    4.1890   -2.3680 hc        1 MOL      0.059700
    140 H65        -1.6620    4.7270   -1.1130 hc        1 MOL      0.059700
    141 H66        -0.9870    3.5540   -2.1380 hc        1 MOL      0.059700
    142 N13        -2.7720    0.6500   -2.2540 n         1 MOL     -0.750199
    143 C46        -4.2430    0.8170   -2.3260 c3        1 MOL      0.151001
    144 C47        -4.5780    2.1160   -3.0290 c         1 MOL      0.504237
    145 O19        -4.0270    2.3770   -4.1030 o         1 MOL     -0.564649
    146 C48        -4.9250   -0.3950   -3.0990 c3        1 MOL     -0.095587
    147 H67        -2.3050   -0.0510   -2.8160 hn        1 MOL      0.378960
    148 H68        -4.5990    0.8930   -1.3040 h1        1 MOL      0.085589
    149 H69        -5.9950   -0.2740   -3.0120 hc        1 MOL      0.044708
    150 H70        -4.6810   -0.4610   -4.1620 hc        1 MOL      0.044708
    151 H71        -4.6580   -1.3360   -2.6180 hc        1 MOL      0.044708
    152 N14        -5.5350    2.9470   -2.5720 n         1 MOL     -0.408768
    153 C49        -6.3070    2.8590   -1.3450 c3        1 MOL     -0.262875
    154 C50        -6.4180    4.2640   -0.7500 c         1 MOL      0.550199
    155 O20        -6.2920    4.4140    0.4700 o         1 MOL     -0.515024
    156 C51        -7.6580    2.1540   -1.5660 c3        1 MOL      0.096022
    157 C52        -8.4610    1.9710   -0.2760 c3        1 MOL     -0.499717
    158 C53        -9.8470    1.4770   -0.5520 c         1 MOL      0.801294
    159 O21       -10.6910    2.1240   -1.2020 o         1 MOL     -0.718734
    160 O22       -10.1920    0.3500   -0.1430 o         1 MOL     -0.718734
    161 H72        -5.7020    3.7270   -3.1940 hn        1 MOL      0.264244
    162 H73        -5.7340    2.2840   -0.6160 h1        1 MOL      0.171106
    163 H74        -7.5160    1.2150   -2.1140 hc        1 MOL      0.023489
    164 H75        -8.2460    2.6750   -2.3190 hc        1 MOL      0.023489
    165 H76        -8.6830    2.9270    0.2010 hc        1 MOL      0.137107
    166 H77        -7.9640    1.3460    0.4750 hc        1 MOL      0.137107
    167 N15        -6.6960    5.2440   -1.5950 n         1 MOL     -0.272334
    168 C54        -6.8930    6.6710   -1.3270 c3        1 MOL     -0.243317
    169 H78        -5.9920    7.0820   -0.8730 h1        1 MOL      0.114747
    170 H79        -7.0970    7.1920   -2.2630 h1        1 MOL      0.114747
    171 H80        -7.7340    6.8010   -0.6470 h1        1 MOL      0.114747
    172 H81        -6.6670    5.0520   -2.5900 hn        1 MOL      0.277641
    173 Ca1         1.6630   -0.1970   -0.7840 Ca        1 MOL      1.689343
    174 O23         0.9500   -0.5130   -3.4040 oh        1 MOL     -0.823707
    175 H82         1.4260   -1.2830   -3.7040 ho        1 MOL      0.391517
    176 H83         0.1390   -0.5160   -3.9110 ho        1 MOL      0.391517
    177 O24         1.2940    2.3280   -1.7090 oh        1 MOL     -0.823707
    178 H84         1.0410    3.2420   -1.5900 ho        1 MOL      0.391517
    179 H85         1.4870    2.2460   -2.6430 ho        1 MOL      0.391517
    180 O25         3.3340    0.7280   -2.8390 oh        1 MOL     -0.823707
    181 H86         3.9360    1.4280   -3.0990 ho        1 MOL      0.391517
    182 H87         2.6990    0.6810   -3.5580 ho        1 MOL      0.391517
@<TRIPOS>BOND
     1    1    2 1   
     2    1    4 1   
     3    1    5 1   
     4    1    6 1   
     5    2    3 2   
     6    2    7 1   
     7    7    8 1   
     8    7   15 1   
     9    8    9 1   
    10    8   11 1   
    11    8   16 1   
    12    9   10 2   
    13    9   19 1   
    14   11   12 1   
    15   11   17 1   
    16   11   18 1   
    17   12   13 1   
    18   12   14 1   
    19   19   20 1   
    20   19   28 1   
    21   20   21 1   
    22   20   23 1   
    23   20   29 1   
    24   21   22 2   
    25   21   41 1   
    26   23   24 1   
    27   23   30 1   
    28   23   31 1   
    29   24   25 1   
    30   24   32 1   
    31   24   33 1   
    32   25   26 1   
    33   25   34 1   
    34   25   35 1   
    35   26   27 1   
    36   26   36 1   
    37   26   37 1   
    38   27   38 1   
    39   27   39 1   
    40   27   40 1   
    41   41   42 1   
    42   41   49 1   
    43   42   43 1   
    44   42   45 1   
    45   42   50 1   
    46   43   44 2   
    47   43   53 1   
    48   45   46 1   
    49   45   51 1   
    50   45   52 1   
    51   46   47 1   
    52   46   48 1   
    53   53   54 1   
    54   53   57 1   
    55   54   55 1   
    56   54   58 1   
    57   54   59 1   
    58   55   56 2   
    59   55   60 1   
    60   60   61 1   
    61   60   68 1   
    62   61   62 1   
    63   61   64 1   
    64   61   69 1   
    65   62   63 2   
    66   62   74 1   
    67   64   65 1   
    68   64   70 1   
    69   64   71 1   
    70   65   66 1   
    71   65   67 2   
    72   66   72 1   
    73   66   73 1   
    74   74   75 1   
    75   74   78 1   
    76   75   76 1   
    77   75   79 1   
    78   75   80 1   
    79   76   77 2   
    80   76   81 1   
    81   81   82 1   
    82   81   93 1   
    83   82   83 1   
    84   82   85 1   
    85   82   94 1   
    86   83   84 2   
    87   83  102 1   
    88   85   86 1   
    89   85   95 1   
    90   85   96 1   
    91   86   87 ar  
    92   86   88 ar  
    93   87   89 ar  
    94   87   97 1   
    95   88   90 ar  
    96   88   98 1   
    97   89   91 ar  
    98   89   99 1   
    99   90   91 ar  
   100   90  100 1   
   101   91   92 1   
   102   92  101 1   
   103  102  103 1   
   104  102  110 1   
   105  103  104 1   
   106  103  106 1   
   107  103  111 1   
   108  104  105 2   
   109  104  121 1   
   110  106  107 1   
   111  106  108 1   
   112  106  112 1   
   113  107  109 1   
   114  107  113 1   
   115  107  114 1   
   116  108  115 1   
   117  108  116 1   
   118  108  117 1   
   119  109  118 1   
   120  109  119 1   
   121  109  120 1   
   122  121  122 1   
   123  121  127 1   
   124  122  123 1   
   125  122  125 1   
   126  122  128 1   
   127  123  124 2   
   128  123  132 1   
   129  125  126 1   
   130  125  129 1   
   131  125  130 1   
   132  126  131 1   
   133  132  133 1   
   134  132  137 1   
   135  133  134 1   
   136  133  136 1   
   137  133  138 1   
   138  134  135 2   
   139  134  142 1   
   140  136  139 1   
   141  136  140 1   
   142  136  141 1   
   143  142  143 1   
   144  142  147 1   
   145  143  144 1   
   146  143  146 1   
   147  143  148 1   
   148  144  145 2   
   149  144  152 1   
   150  146  149 1   
   151  146  150 1   
   152  146  151 1   
   153  152  153 1   
   154  152  161 1   
   155  153  154 1   
   156  153  156 1   
   157  153  162 1   
   158  154  155 2   
   159  154  167 1   
   160  156  157 1   
   161  156  163 1   
   162  156  164 1   
   163  157  158 1   
   164  157  165 1   
   165  157  166 1   
   166  158  159 1   
   167  158  160 1   
   168  167  168 1   
   169  167  172 1   
   170  168  169 1   
   171  168  170 1   
   172  168  171 1   
   173  174  175 1   
   174  174  176 1   
   175  177  178 1   
   176  177  179 1   
   177  180  181 1   
   178  180  182 1   
@<TRIPOS>SUBSTRUCTURE
     1 MOL         1 TEMP              0 ****  ****    0 ROOT
