@<TRIPOS>MOLECULE
MOL
  191   184     1     0     0
SMALL
resp


@<TRIPOS>ATOM
      1 C1          1.4730    0.8910    2.2040 c3        1 MOL     -0.496584
      2 C2          2.7210    0.8780    1.3660 c         1 MOL      0.667450
      3 O1          2.7470    1.2330    0.1930 o         1 MOL     -0.576163
      4 H1          0.7290    0.2310    1.7580 hc        1 MOL      0.126587
      5 H2          1.7070    0.5430    3.2110 hc        1 MOL      0.126587
      6 H3          1.0780    1.9050    2.2520 hc        1 MOL      0.126587
      7 N1          3.7010    0.3030    1.9670 n         1 MOL     -0.379829
      8 C3          4.9900    0.0830    1.3880 c3        1 MOL     -0.114440
      9 C4          5.5540   -1.2850    1.6730 c         1 MOL      0.609589
     10 O2          6.5700   -1.5910    1.0300 o         1 MOL     -0.501861
     11 C5          5.9620    1.1160    2.0020 c3        1 MOL     -0.148475
     12 C6          5.9620    1.2020    3.5680 c         1 MOL      0.635036
     13 O3          5.4640    0.3310    4.3200 o         1 MOL     -0.654980
     14 O4          6.5900    2.1950    4.0720 o         1 MOL     -0.654980
     15 H4          3.6180   -0.0020    2.9290 hn        1 MOL      0.228201
     16 H5          4.8910    0.1500    0.3110 h1        1 MOL      0.148816
     17 H6          5.6910    2.1120    1.6520 hc        1 MOL      0.069099
     18 H7          6.9860    0.9780    1.6240 hc        1 MOL      0.069099
     19 N2          4.8210   -2.1840    2.2560 n         1 MOL     -0.487247
     20 C7          5.0530   -3.6440    2.2900 c3        1 MOL      0.123561
     21 C8          5.3010   -4.3390    0.9080 c         1 MOL      0.373106
     22 O5          6.0070   -5.3330    0.8160 o         1 MOL     -0.520736
     23 C9          6.2210   -3.9810    3.3140 c3        1 MOL     -0.125025
     24 C10         5.7330   -3.7870    4.7330 c3        1 MOL      0.205918
     25 C11         6.8430   -3.7780    5.8060 c3        1 MOL     -0.234738
     26 C12         7.6530   -2.4950    5.6650 c3        1 MOL      0.031779
     27 N3          6.8500   -1.3020    6.0060 n4        1 MOL     -0.330587
     28 H8          3.9400   -1.9080    2.6630 hn        1 MOL      0.265165
     29 H9          4.1210   -4.0790    2.6470 h1        1 MOL      0.049717
     30 H10         7.0920   -3.3320    3.1780 hc        1 MOL      0.066321
     31 H11         6.4710   -5.0330    3.2610 hc        1 MOL      0.066321
     32 H12         5.0170   -4.5590    5.0060 hc        1 MOL     -0.050589
     33 H13         5.3250   -2.7700    4.7670 hc        1 MOL     -0.050589
     34 H14         7.5170   -4.6270    5.7020 hc        1 MOL      0.087038
     35 H15         6.5060   -3.8460    6.8430 hc        1 MOL      0.087038
     36 H16         7.9470   -2.4190    4.6130 hx        1 MOL      0.083921
     37 H17         8.5560   -2.6020    6.2700 hx        1 MOL      0.083921
     38 H18         7.5190   -0.6370    6.3640 hn        1 MOL      0.298135
     39 H19         6.3420   -0.8190    5.2800 hn        1 MOL      0.298135
     40 H20         6.2500   -1.5250    6.7780 hn        1 MOL      0.298135
     41 N4          4.7460   -3.8330   -0.1150 n         1 MOL     -0.109769
     42 C13         5.0860   -4.1880   -1.5400 c3        1 MOL     -0.058205
     43 C14         5.1790   -3.0280   -2.4640 c         1 MOL      0.596462
     44 O6          4.8670   -3.1410   -3.6610 o         1 MOL     -0.565894
     45 C15         4.1330   -5.2970   -1.9640 c3        1 MOL     -0.238856
     46 C16         2.6560   -4.9580   -2.0270 c         1 MOL      0.532963
     47 O7          2.2700   -3.7940   -2.3580 o         1 MOL     -0.642339
     48 O8          1.8440   -5.6770   -1.4840 o         1 MOL     -0.642339
     49 H21         4.0110   -3.1310   -0.0430 hn        1 MOL      0.168546
     50 H22         6.1190   -4.5040   -1.6060 h1        1 MOL      0.117980
     51 H23         4.2860   -6.1370   -1.2810 hc        1 MOL      0.091128
     52 H24         4.4640   -5.6570   -2.9370 hc        1 MOL      0.091128
     53 N5          5.5910   -1.8900   -1.8330 n         1 MOL     -0.388251
     54 C17         5.7080   -0.5930   -2.4670 c3        1 MOL     -0.006993
     55 C18         6.9360    0.1730   -1.9690 c         1 MOL      0.571956
     56 O9          7.9730   -0.3880   -1.6260 o         1 MOL     -0.542202
     57 H25         5.6290   -1.9000   -0.8270 hn        1 MOL      0.166477
     58 H26         4.8890    0.0620   -2.1780 h1        1 MOL      0.067700
     59 H27         5.7710   -0.7430   -3.5410 h1        1 MOL      0.067700
     60 N6          6.9090    1.4970   -1.9360 n         1 MOL     -0.509989
     61 C19         5.9070    2.4910   -2.3440 c3        1 MOL      0.096864
     62 C20         5.6890    3.6370   -1.3000 c         1 MOL      0.497533
     63 O10         6.6550    4.0180   -0.6740 o         1 MOL     -0.495251
     64 C21         6.2620    2.9620   -3.6960 c3        1 MOL     -0.295621
     65 C22         7.2120    4.0960   -3.6790 c         1 MOL      0.629928
     66 N7          8.4960    3.9140   -3.8340 n         1 MOL     -0.768167
     67 O11         6.8500    5.2310   -3.3800 o         1 MOL     -0.537928
     68 H28         7.6740    1.9500   -1.4690 hn        1 MOL      0.309376
     69 H29         4.9460    2.0170   -2.5200 h1        1 MOL      0.059510
     70 H30         5.4070    3.2260   -4.3170 hc        1 MOL      0.105813
     71 H31         6.7390    2.1940   -4.3030 hc        1 MOL      0.105813
     72 H32         8.9880    3.0330   -3.7960 hn        1 MOL      0.364754
     73 H33         9.0640    4.7530   -3.8110 hn        1 MOL      0.364754
     74 N8          4.5880    4.3790   -1.1540 n         1 MOL     -0.391498
     75 C23         3.2900    4.1320   -1.7820 c3        1 MOL     -0.103152
     76 C24         2.1120    4.9660   -1.2620 c         1 MOL      0.720402
     77 O12         2.2220    6.1390   -0.9060 o         1 MOL     -0.555663
     78 H34         4.6190    4.9300   -0.3060 hn        1 MOL      0.305973
     79 H35         3.0560    3.0870   -1.5730 h1        1 MOL      0.067667
     80 H36         3.4130    4.2710   -2.8540 h1        1 MOL      0.067667
     81 N9          0.9170    4.4080   -1.2730 n         1 MOL     -0.630966
     82 C25        -0.2460    5.0770   -0.7320 c3        1 MOL      0.140804
     83 C26        -1.4020    4.1980   -0.2430 c         1 MOL      0.531176
     84 O13        -1.6740    3.1640   -0.8210 o         1 MOL     -0.514308
     85 C27        -0.7750    6.0770   -1.8270 c3        1 MOL      0.001001
     86 C28        -1.5120    7.2910   -1.2960 ca        1 MOL      0.008864
     87 C29        -2.8390    7.3690   -1.5450 ca        1 MOL     -0.151727
     88 C30        -0.9100    8.1520   -0.2700 ca        1 MOL     -0.151727
     89 C31        -3.6560    8.2840   -0.8350 ca        1 MOL     -0.252414
     90 C32        -1.7160    9.1070    0.3770 ca        1 MOL     -0.252414
     91 C33        -3.1260    9.1480    0.1990 ca        1 MOL      0.384168
     92 O14        -3.8490    9.9850    0.9460 oh        1 MOL     -0.522898
     93 H37         0.7940    3.4360   -1.5020 hn        1 MOL      0.313833
     94 H38        -0.0510    5.6910    0.1460 h1        1 MOL      0.027608
     95 H39        -1.3350    5.5150   -2.5810 hc        1 MOL      0.034741
     96 H40         0.0700    6.4940   -2.3850 hc        1 MOL      0.034741
     97 H41        -3.3210    6.6460   -2.1910 ha        1 MOL      0.146389
     98 H42         0.1080    7.9830    0.0140 ha        1 MOL      0.146389
     99 H43        -4.7330    8.2280   -0.9080 ha        1 MOL      0.126065
    100 H44        -1.2240    9.7750    1.0710 ha        1 MOL      0.126065
    101 H45        -3.4710   10.1650    1.8060 ho        1 MOL      0.385754
    102 N10        -2.1290    4.6660    0.7930 n         1 MOL     -0.310049
    103 C34        -3.3090    4.0720    1.4260 c3        1 MOL     -0.296224
    104 C35        -4.4660    3.9820    0.4110 c         1 MOL      0.667889
    105 O15        -4.6680    4.9180   -0.3830 o         1 MOL     -0.514617
    106 C36        -3.6420    4.7110    2.7880 c3        1 MOL      0.504036
    107 C37        -2.8950    4.1220    3.9740 c3        1 MOL     -0.058905
    108 C38        -3.3090    6.2110    2.6150 c3        1 MOL     -0.357057
    109 C39        -3.0230    4.9890    5.2250 c3        1 MOL     -0.154641
    110 H46        -1.8210    5.5750    1.1100 hn        1 MOL      0.197753
    111 H47        -3.0100    3.0530    1.6670 h1        1 MOL      0.046005
    112 H48        -4.7010    4.5240    2.9080 hc        1 MOL     -0.068762
    113 H49        -1.8520    4.0190    3.6900 hc        1 MOL      0.019456
    114 H50        -3.3650    3.1540    4.1430 hc        1 MOL      0.019456
    115 H51        -3.8110    6.7850    3.3880 hc        1 MOL      0.075041
    116 H52        -2.2310    6.3820    2.6240 hc        1 MOL      0.075041
    117 H53        -3.8060    6.6390    1.7390 hc        1 MOL      0.075041
    118 H54        -4.0510    5.3290    5.2690 hc        1 MOL      0.039481
    119 H55        -2.8810    4.3570    6.0990 hc        1 MOL      0.039481
    120 H56        -2.2800    5.8040    5.2300 hc        1 MOL      0.039481
    121 N11        -5.1690    2.8400    0.4570 n         1 MOL     -0.496337
    122 C40        -6.1460    2.4220   -0.5360 c3        1 MOL      0.009539
    123 C41        -6.2800    1.0000   -0.8680 c         1 MOL      0.656655
    124 O16        -5.8470    0.1060   -0.1860 o         1 MOL     -0.493673
    125 C42        -7.5290    2.9130   -0.0620 c3        1 MOL      0.113737
    126 O17        -7.8750    2.2540    1.1230 oh        1 MOL     -0.562693
    127 H57        -5.0540    2.3190    1.3140 hn        1 MOL      0.312633
    128 H58        -5.9350    2.9830   -1.4480 h1        1 MOL      0.074581
    129 H59        -8.2650    2.7830   -0.8530 h1        1 MOL      0.017153
    130 H60        -7.4740    3.9860    0.0980 h1        1 MOL      0.017153
    131 H61        -8.7970    2.5120    1.2400 ho        1 MOL      0.400873
    132 N12        -6.9250    0.8090   -2.0680 n         1 MOL     -0.620634
    133 C43        -6.9310   -0.4950   -2.7700 c3        1 MOL      0.385803
    134 C44        -7.4960   -1.6340   -1.8980 c         1 MOL      0.353384
    135 O18        -7.1840   -2.8310   -2.1690 o         1 MOL     -0.445203
    136 C45        -5.6240   -0.8230   -3.5180 c3        1 MOL     -0.412715
    137 H62        -7.2860    1.6210   -2.5450 hn        1 MOL      0.303701
    138 H63        -7.7160   -0.4160   -3.5260 h1        1 MOL      0.014584
    139 H64        -5.1900   -1.5950   -2.8820 hc        1 MOL      0.109963
    140 H65        -5.8420   -1.4230   -4.4030 hc        1 MOL      0.109963
    141 H66        -4.9220   -0.0020   -3.7040 hc        1 MOL      0.109963
    142 N13        -8.3960   -1.4110   -0.9950 n         1 MOL     -0.510187
    143 C46        -9.1340   -2.4150   -0.1770 c3        1 MOL      0.342812
    144 C47        -8.2650   -3.5190    0.5210 c         1 MOL      0.183643
    145 O19        -8.5960   -4.6680    0.7320 o         1 MOL     -0.452982
    146 C48       -10.2260   -3.0010   -1.1070 c3        1 MOL     -0.204398
    147 H67        -8.7650   -0.4730   -1.0240 hn        1 MOL      0.264401
    148 H68        -9.6280   -1.8870    0.6390 h1        1 MOL      0.009436
    149 H69       -10.8640   -2.1760   -1.4080 hc        1 MOL      0.060983
    150 H70        -9.8430   -3.5470   -1.9710 hc        1 MOL      0.060983
    151 H71       -10.8920   -3.6760   -0.5690 hc        1 MOL      0.060983
    152 N14        -7.0030   -3.2060    0.7980 n         1 MOL     -0.013344
    153 C49        -5.9730   -4.0210    1.5100 c3        1 MOL     -0.037751
    154 C50        -6.3060   -4.2390    3.0440 c         1 MOL      0.420765
    155 O20        -6.0330   -5.3800    3.4170 o         1 MOL     -0.505137
    156 C51        -4.5710   -3.4410    1.4930 c3        1 MOL      0.439757
    157 C52        -3.3980   -4.4070    1.3190 c3        1 MOL     -0.221863
    158 C53        -3.1640   -4.8000   -0.1020 c         1 MOL      0.758250
    159 O21        -3.5900   -5.8040   -0.6300 o         1 MOL     -0.744676
    160 O22        -2.5830   -4.0240   -0.8740 o         1 MOL     -0.744676
    161 H72        -6.7350   -2.2510    0.5990 hn        1 MOL      0.064038
    162 H73        -5.8350   -5.0320    1.1280 h1        1 MOL      0.112801
    163 H74        -4.3750   -2.7760    2.3360 hc        1 MOL     -0.116201
    164 H75        -4.4940   -2.7710    0.6490 hc        1 MOL     -0.116201
    165 H76        -3.5140   -5.2970    1.9430 hc        1 MOL      0.003899
    166 H77        -2.4690   -3.9390    1.6400 hc        1 MOL      0.003899
    167 N15        -6.7660   -3.2490    3.8360 n         1 MOL     -0.260377
    168 C54        -7.3040   -3.5020    5.1730 c3        1 MOL     -0.260093
    169 H78        -8.2460   -4.0440    5.0870 h1        1 MOL      0.117107
    170 H79        -6.5940   -4.0970    5.7450 h1        1 MOL      0.117107
    171 H80        -7.4770   -2.5530    5.6810 h1        1 MOL      0.117107
    172 H81        -6.9550   -2.3510    3.4110 hn        1 MOL      0.211031
    173 Ca1        -0.4420   -4.5180   -2.2560 Ca        1 MOL      1.733104
    174 O23         0.2510   -3.8890    0.2630 oh        1 MOL     -0.838838
    175 H82         0.4750   -4.4280    1.0200 ho        1 MOL      0.416409
    176 H83         0.3590   -2.9910    0.5800 ho        1 MOL      0.416409
    177 O24        -0.5080   -1.8710   -2.2140 oh        1 MOL     -0.838838
    178 H84        -0.2890   -1.1010   -2.7480 ho        1 MOL      0.416409
    179 H85        -1.3910   -1.6740   -1.8810 ho        1 MOL      0.416409
    180 O25         0.8160   -6.0850   -4.4190 oh        1 MOL     -0.838838
    181 H86         1.5560   -6.6940   -4.5330 ho        1 MOL      0.416409
    182 H87         1.0460   -5.3220   -4.9500 ho        1 MOL      0.416409
    183 O26        -0.2420   -3.3780   -4.6650 oh        1 MOL     -0.838838
    184 H88        -0.4010   -3.7480   -5.5320 ho        1 MOL      0.416409
    185 H89         0.1200   -2.5070   -4.8360 ho        1 MOL      0.416409
    186 O27        -2.6810   -5.3820   -3.5000 oh        1 MOL     -0.838838
    187 H90        -2.8250   -5.8420   -4.3260 ho        1 MOL      0.416409
    188 H91        -3.5050   -5.4810   -3.0310 ho        1 MOL      0.416409
    189 O28        -1.0470   -6.9230   -1.1690 oh        1 MOL     -0.838838
    190 H92        -1.9190   -6.6650   -0.8530 ho        1 MOL      0.416409
    191 H93        -1.0060   -7.8620   -1.0250 ho        1 MOL      0.416409
@<TRIPOS>BOND
     1    1    2 1   
     2    1    4 1   
     3    1    5 1   
     4    1    6 1   
     5    2    3 2   
     6    2    7 1   
     7    7    8 1   
     8    7   15 1   
     9    8    9 1   
    10    8   11 1   
    11    8   16 1   
    12    9   10 2   
    13    9   19 1   
    14   11   12 1   
    15   11   17 1   
    16   11   18 1   
    17   12   13 1   
    18   12   14 1   
    19   19   20 1   
    20   19   28 1   
    21   20   21 1   
    22   20   23 1   
    23   20   29 1   
    24   21   22 2   
    25   21   41 1   
    26   23   24 1   
    27   23   30 1   
    28   23   31 1   
    29   24   25 1   
    30   24   32 1   
    31   24   33 1   
    32   25   26 1   
    33   25   34 1   
    34   25   35 1   
    35   26   27 1   
    36   26   36 1   
    37   26   37 1   
    38   27   38 1   
    39   27   39 1   
    40   27   40 1   
    41   41   42 1   
    42   41   49 1   
    43   42   43 1   
    44   42   45 1   
    45   42   50 1   
    46   43   44 2   
    47   43   53 1   
    48   45   46 1   
    49   45   51 1   
    50   45   52 1   
    51   46   47 1   
    52   46   48 1   
    53   53   54 1   
    54   53   57 1   
    55   54   55 1   
    56   54   58 1   
    57   54   59 1   
    58   55   56 2   
    59   55   60 1   
    60   60   61 1   
    61   60   68 1   
    62   61   62 1   
    63   61   64 1   
    64   61   69 1   
    65   62   63 2   
    66   62   74 1   
    67   64   65 1   
    68   64   70 1   
    69   64   71 1   
    70   65   66 1   
    71   65   67 2   
    72   66   72 1   
    73   66   73 1   
    74   74   75 1   
    75   74   78 1   
    76   75   76 1   
    77   75   79 1   
    78   75   80 1   
    79   76   77 2   
    80   76   81 1   
    81   81   82 1   
    82   81   93 1   
    83   82   83 1   
    84   82   85 1   
    85   82   94 1   
    86   83   84 2   
    87   83  102 1   
    88   85   86 1   
    89   85   95 1   
    90   85   96 1   
    91   86   87 ar  
    92   86   88 ar  
    93   87   89 ar  
    94   87   97 1   
    95   88   90 ar  
    96   88   98 1   
    97   89   91 ar  
    98   89   99 1   
    99   90   91 ar  
   100   90  100 1   
   101   91   92 1   
   102   92  101 1   
   103  102  103 1   
   104  102  110 1   
   105  103  104 1   
   106  103  106 1   
   107  103  111 1   
   108  104  105 2   
   109  104  121 1   
   110  106  107 1   
   111  106  108 1   
   112  106  112 1   
   113  107  109 1   
   114  107  113 1   
   115  107  114 1   
   116  108  115 1   
   117  108  116 1   
   118  108  117 1   
   119  109  118 1   
   120  109  119 1   
   121  109  120 1   
   122  121  122 1   
   123  121  127 1   
   124  122  123 1   
   125  122  125 1   
   126  122  128 1   
   127  123  124 2   
   128  123  132 1   
   129  125  126 1   
   130  125  129 1   
   131  125  130 1   
   132  126  131 1   
   133  132  133 1   
   134  132  137 1   
   135  133  134 1   
   136  133  136 1   
   137  133  138 1   
   138  134  135 2   
   139  134  142 1   
   140  136  139 1   
   141  136  140 1   
   142  136  141 1   
   143  142  143 1   
   144  142  147 1   
   145  143  144 1   
   146  143  146 1   
   147  143  148 1   
   148  144  145 2   
   149  144  152 1   
   150  146  149 1   
   151  146  150 1   
   152  146  151 1   
   153  152  153 1   
   154  152  161 1   
   155  153  154 1   
   156  153  156 1   
   157  153  162 1   
   158  154  155 2   
   159  154  167 1   
   160  156  157 1   
   161  156  163 1   
   162  156  164 1   
   163  157  158 1   
   164  157  165 1   
   165  157  166 1   
   166  158  159 1   
   167  158  160 1   
   168  167  168 1   
   169  167  172 1   
   170  168  169 1   
   171  168  170 1   
   172  168  171 1   
   173  174  175 1   
   174  174  176 1   
   175  177  178 1   
   176  177  179 1   
   177  180  181 1   
   178  180  182 1   
   179  183  184 1   
   180  183  185 1   
   181  186  187 1   
   182  186  188 1   
   183  189  190 1   
   184  189  191 1   
@<TRIPOS>SUBSTRUCTURE
     1 MOL         1 TEMP              0 ****  ****    0 ROOT
