@<TRIPOS>MOLECULE
MOL
  198   191     1     0     0
SMALL
resp


@<TRIPOS>ATOM
      1 C1         -9.8720    3.3290    4.2950 c3        1 MOL     -0.329552
      2 C2         -8.7570    3.6050    3.2150 c         1 MOL      0.745742
      3 O1         -7.9840    2.8350    2.7830 o         1 MOL     -0.550674
      4 H1        -10.8560    3.4540    3.8400 hc        1 MOL      0.079877
      5 H2         -9.7720    2.3100    4.6680 hc        1 MOL      0.079877
      6 H3         -9.7620    4.0320    5.1200 hc        1 MOL      0.079877
      7 N1         -8.8430    4.8550    2.6860 n         1 MOL     -0.601888
      8 C3         -8.0020    5.3030    1.5870 c3        1 MOL      0.199496
      9 C4         -8.1370    4.3330    0.3560 c         1 MOL      0.495260
     10 O2         -7.2000    4.1870   -0.4370 o         1 MOL     -0.570183
     11 C5         -6.5930    5.5560    1.9850 c3        1 MOL     -0.430535
     12 C6         -6.5210    6.5770    3.2090 c         1 MOL      0.740524
     13 O3         -7.4010    7.4480    3.3960 o         1 MOL     -0.657817
     14 O4         -5.5400    6.5460    3.9830 o         1 MOL     -0.657817
     15 H4         -9.5100    5.4940    3.0880 hn        1 MOL      0.302001
     16 H5         -8.4870    6.2270    1.2680 h1        1 MOL      0.022356
     17 H6         -5.9530    5.7290    1.1290 hc        1 MOL      0.127196
     18 H7         -6.2080    4.6000    2.3230 hc        1 MOL      0.127196
     19 N2         -9.2930    3.7600    0.1140 n         1 MOL     -0.610262
     20 C7         -9.5590    2.9330   -1.0100 c3        1 MOL      0.234639
     21 C8         -8.5380    1.8660   -1.3820 c         1 MOL      0.510539
     22 O5         -8.8100    1.2640   -2.3630 o         1 MOL     -0.541949
     23 C9        -10.0720    3.8160   -2.2380 c3        1 MOL     -0.447174
     24 C10        -8.9060    4.4790   -2.9630 c3        1 MOL      0.530726
     25 C11        -9.2090    5.0680   -4.3140 c3        1 MOL     -0.387353
     26 C12        -8.0250    5.5230   -5.1080 c3        1 MOL      0.026963
     27 N3         -7.5720    6.7700   -4.5260 n4        1 MOL     -0.484154
     28 H8        -10.0850    4.1300    0.6220 hn        1 MOL      0.320290
     29 H9        -10.4400    2.3640   -0.7160 h1        1 MOL      0.071619
     30 H10       -10.7730    4.5940   -1.9230 hc        1 MOL      0.108110
     31 H11       -10.3670    3.1290   -3.0360 hc        1 MOL      0.108110
     32 H12        -8.0010    3.8780   -3.1060 hc        1 MOL     -0.048359
     33 H13        -8.5820    5.2940   -2.3090 hc        1 MOL     -0.048359
     34 H14        -9.7940    5.9770   -4.1730 hc        1 MOL      0.099824
     35 H15        -9.6160    4.2180   -4.8640 hc        1 MOL      0.099824
     36 H16        -8.2090    5.5160   -6.1890 hx        1 MOL      0.123055
     37 H17        -7.1580    4.8580   -5.0920 hx        1 MOL      0.123055
     38 H18        -8.3500    7.4150   -4.6120 hn        1 MOL      0.348455
     39 H19        -7.2530    6.7040   -3.5650 hn        1 MOL      0.348455
     40 H20        -6.7950    7.1200   -5.0800 hn        1 MOL      0.348455
     41 N4         -7.6000    1.4570   -0.5280 n         1 MOL     -0.640331
     42 C13        -6.7640    0.2740   -0.5880 c3        1 MOL      0.344960
     43 C14        -5.9890    0.0040    0.7960 c         1 MOL      0.437764
     44 O6         -5.3380    0.9270    1.2440 o         1 MOL     -0.523563
     45 C15        -5.7190    0.4040   -1.6570 c3        1 MOL     -0.166592
     46 C16        -5.0420   -0.8340   -2.1620 c         1 MOL      0.502421
     47 O7         -4.1280   -0.8110   -3.0300 o         1 MOL     -0.660197
     48 O8         -5.4530   -1.9890   -1.7940 o         1 MOL     -0.660197
     49 H21        -7.3430    2.0930    0.2110 hn        1 MOL      0.378645
     50 H22        -7.4870   -0.4920   -0.8650 h1        1 MOL      0.077736
     51 H23        -4.9520    1.1000   -1.3250 hc        1 MOL      0.068747
     52 H24        -6.0350    0.9320   -2.5560 hc        1 MOL      0.068747
     53 N5         -6.0500   -1.1390    1.4090 n         1 MOL     -0.389903
     54 C17        -7.0090   -2.2370    1.3290 c3        1 MOL     -0.074848
     55 C18        -6.2650   -3.5620    1.3670 c         1 MOL      0.558143
     56 O9         -5.8560   -3.8880    2.4430 o         1 MOL     -0.558737
     57 H25        -5.4200   -1.0870    2.2010 hn        1 MOL      0.301597
     58 H26        -7.5510   -2.1910    0.3890 h1        1 MOL      0.064398
     59 H27        -7.7600   -2.2390    2.1210 h1        1 MOL      0.064398
     60 N6         -5.9920   -4.1390    0.2030 n         1 MOL     -0.390702
     61 C19        -5.2520   -5.4330   -0.0490 c3        1 MOL      0.129868
     62 C20        -3.6780   -5.2380   -0.0820 c         1 MOL      0.179105
     63 O10        -3.1230   -4.2380   -0.4920 o         1 MOL     -0.438063
     64 C21        -5.7380   -6.1800   -1.3090 c3        1 MOL     -0.307901
     65 C22        -5.7620   -5.2800   -2.6100 c         1 MOL      0.540013
     66 O11        -4.6770   -4.7240   -2.8760 o         1 MOL     -0.583666
     67 O12        -6.7970   -5.0080   -3.2220 o         1 MOL     -0.583666
     68 H28        -6.1090   -3.5070   -0.5720 hn        1 MOL      0.311286
     69 H29        -5.5290   -5.9630    0.8670 h1        1 MOL      0.058435
     70 H30        -6.7150   -6.5990   -1.0550 hc        1 MOL      0.089331
     71 H31        -5.1090   -7.0630   -1.4520 hc        1 MOL      0.089331
     72 N7         -2.9450   -6.2920    0.1870 n         1 MOL     -0.229546
     73 C23        -1.4900   -6.5600   -0.0380 c3        1 MOL     -0.235661
     74 C24        -0.5980   -5.7870    0.9460 c         1 MOL      0.677129
     75 O13         0.5400   -6.1560    0.9810 o         1 MOL     -0.567291
     76 H32        -3.4390   -7.1620    0.3490 hn        1 MOL      0.251354
     77 H33        -1.3440   -6.1140   -1.0210 h1        1 MOL      0.134226
     78 H34        -1.3000   -7.6260    0.0350 h1        1 MOL      0.134226
     79 N8         -1.1630   -4.8680    1.7490 n         1 MOL     -0.547878
     80 C25        -0.5110   -4.0080    2.7450 c3        1 MOL      0.050463
     81 C26         0.0260   -2.6610    2.1400 c         1 MOL      0.601694
     82 O14        -0.6480   -2.0830    1.3200 o         1 MOL     -0.586572
     83 C27        -1.3750   -3.7860    3.9520 c3        1 MOL      0.291639
     84 C28        -2.7850   -3.2170    3.7320 c3        1 MOL     -0.399976
     85 O15        -1.4340   -4.9380    4.6800 oh        1 MOL     -0.612944
     86 H35        -2.0350   -4.4840    1.4160 hn        1 MOL      0.301666
     87 H36         0.3590   -4.5230    3.1660 h1        1 MOL      0.067531
     88 H37        -0.7900   -3.1910    4.6470 h1        1 MOL      0.067038
     89 H38        -1.9660   -5.5900    4.2160 ho        1 MOL      0.386087
     90 H39        -3.2940   -3.2700    4.6960 hc        1 MOL      0.131670
     91 H40        -2.7340   -2.1770    3.3990 hc        1 MOL      0.131670
     92 H41        -3.2750   -3.9140    3.0540 hc        1 MOL      0.131670
     93 N9          1.1340   -2.1450    2.7030 n         1 MOL     -0.537905
     94 C29         1.5660   -0.6920    2.5520 c3        1 MOL     -0.017068
     95 C30         2.8240   -0.4410    1.6720 c         1 MOL      0.401367
     96 O16         3.1830    0.7280    1.4350 o         1 MOL     -0.493540
     97 C31         1.4650    0.1180    3.8480 c3        1 MOL      0.025716
     98 C32         2.3710   -0.4580    4.9180 c3        1 MOL      0.323369
     99 C33        -0.0210    0.1500    4.3340 c3        1 MOL     -0.186488
    100 C34         2.4130    0.3220    6.2790 c3        1 MOL     -0.357561
    101 H42         1.6550   -2.7320    3.3340 hn        1 MOL      0.294892
    102 H43         0.8330   -0.1300    1.9860 h1        1 MOL      0.113236
    103 H44         1.8190    1.1420    3.7090 hc        1 MOL      0.043201
    104 H45         3.3710   -0.5350    4.4850 hc        1 MOL     -0.072338
    105 H46         2.1880   -1.5160    5.0670 hc        1 MOL     -0.072338
    106 H47        -0.0990    0.8010    5.2010 hc        1 MOL      0.059857
    107 H48        -0.6580    0.7700    3.7060 hc        1 MOL      0.059857
    108 H49        -0.4740   -0.8100    4.5910 hc        1 MOL      0.059857
    109 H50         3.2470    0.0860    6.9460 hc        1 MOL      0.088636
    110 H51         2.5200    1.3610    5.9580 hc        1 MOL      0.088636
    111 H52         1.4470    0.0870    6.7230 hc        1 MOL      0.088636
    112 N10         3.4710   -1.5550    1.2150 n         1 MOL     -0.211754
    113 C35         4.5790   -1.4230    0.2440 c3        1 MOL     -0.049757
    114 C36         5.9060   -2.0300    0.8780 c         1 MOL      0.390849
    115 O17         5.8740   -3.0490    1.5950 o         1 MOL     -0.516560
    116 C37         4.2550   -1.9330   -1.1540 c3        1 MOL      0.492911
    117 C38         3.0430   -1.3870   -1.7900 c3        1 MOL     -0.324167
    118 O18         5.2600   -1.5900   -2.0670 oh        1 MOL     -0.677612
    119 H53         2.9840   -2.4180    1.3780 hn        1 MOL      0.197112
    120 H54         4.8400   -0.3750    0.1030 h1        1 MOL      0.059409
    121 H55         4.1330   -3.0070   -1.0210 h1        1 MOL      0.005897
    122 H56         5.4400   -0.6620   -1.9030 ho        1 MOL      0.419060
    123 H57         2.2470   -1.8920   -1.2320 hc        1 MOL      0.066636
    124 H58         3.1110   -0.3040   -1.7510 hc        1 MOL      0.066636
    125 H59         2.8770   -1.7740   -2.7970 hc        1 MOL      0.066636
    126 N11         7.0160   -1.3480    0.5810 n         1 MOL     -0.253585
    127 C39         8.3610   -1.7840    1.0570 c3        1 MOL     -0.050617
    128 C40         9.3300   -0.6660    1.1280 c         1 MOL      0.421354
    129 O19         9.7250   -0.2270    2.2170 o         1 MOL     -0.522674
    130 C41         8.8570   -3.0790    0.3890 c3        1 MOL      0.273743
    131 C42         9.9910   -3.5630    1.2700 c3        1 MOL     -0.475134
    132 O20         9.3960   -2.8820   -0.8720 oh        1 MOL     -0.641484
    133 H60         6.8980   -0.6050   -0.0870 hn        1 MOL      0.172217
    134 H61         8.1650   -2.1000    2.0840 h1        1 MOL      0.141368
    135 H62         8.0510   -3.8020    0.4090 h1        1 MOL      0.077580
    136 H63         9.7230   -3.7520   -1.1160 ho        1 MOL      0.394446
    137 H64         9.5440   -3.9600    2.1810 hc        1 MOL      0.125961
    138 H65        10.4400   -4.3990    0.7240 hc        1 MOL      0.125961
    139 H66        10.7880   -2.8340    1.4120 hc        1 MOL      0.125961
    140 N12         9.6020    0.0680    0.0070 n         1 MOL     -0.139966
    141 C43        10.2860    1.4230   -0.0810 c3        1 MOL     -0.058930
    142 C44         9.3930    2.4550   -0.7260 c         1 MOL      0.510219
    143 O21         8.7130    1.9340   -1.6000 o         1 MOL     -0.495345
    144 C45        11.6360    1.2680   -0.7780 c3        1 MOL      0.048594
    145 C46        12.6160    0.2440   -0.2560 c3        1 MOL     -0.174948
    146 C47        12.6270   -1.2090   -0.8250 c3        1 MOL     -0.177893
    147 C48        12.8790   -1.2180   -2.3380 c3        1 MOL      0.101879
    148 N13        13.4250   -2.5850   -2.8270 n4        1 MOL     -0.237547
    149 H67         9.1920   -0.2550   -0.8540 hn        1 MOL      0.226318
    150 H68        10.6290    1.7470    0.9090 h1        1 MOL      0.085062
    151 H69        12.1790    2.2110   -0.8280 hc        1 MOL      0.017722
    152 H70        11.4050    1.0870   -1.8300 hc        1 MOL      0.017722
    153 H71        12.3950    0.2210    0.8130 hc        1 MOL      0.090868
    154 H72        13.5840    0.6700   -0.5030 hc        1 MOL      0.090868
    155 H73        11.7340   -1.7330   -0.4740 hc        1 MOL      0.073901
    156 H74        13.5140   -1.6450   -0.3730 hc        1 MOL      0.073901
    157 H75        13.5310   -0.4000   -2.6250 hx        1 MOL      0.065870
    158 H76        11.9270   -1.0220   -2.8460 hx        1 MOL      0.065870
    159 H77        13.9860   -3.0150   -2.1020 hn        1 MOL      0.201625
    160 H78        12.6830   -3.2280   -3.0420 hn        1 MOL      0.201625
    161 H79        14.0530   -2.4870   -3.6100 hn        1 MOL      0.201625
    162 N14         9.5040    3.7200   -0.2950 n         1 MOL     -0.616305
    163 C49         8.8540    4.7450   -1.0790 c3        1 MOL      0.384591
    164 C50         7.3810    4.4350   -1.3660 c         1 MOL      0.242157
    165 O22         7.0490    4.4380   -2.5220 o         1 MOL     -0.513143
    166 C51         9.1690    6.1110   -0.4520 c3        1 MOL     -0.136533
    167 C52         8.5240    7.2470   -1.3110 c3        1 MOL     -0.137029
    168 C53         8.9130    8.6280   -0.7800 c         1 MOL      0.639755
    169 O23         9.5000    9.5010   -1.5260 o         1 MOL     -0.635615
    170 O24         8.6350    8.9240    0.4370 o         1 MOL     -0.635615
    171 H80        10.1090    3.9290    0.4930 hn        1 MOL      0.318858
    172 H81         9.3780    4.8120   -2.0390 h1        1 MOL      0.027930
    173 H82        10.2450    6.3030   -0.4370 hc        1 MOL      0.047747
    174 H83         8.6980    6.1290    0.5380 hc        1 MOL      0.047747
    175 H84         7.4410    7.1810   -1.3440 hc        1 MOL      0.038797
    176 H85         8.8750    7.0830   -2.3320 hc        1 MOL      0.038797
    177 N15         6.5080    4.0680   -0.4320 n         1 MOL     -0.172085
    178 C54         6.6290    4.0890    0.9820 c3        1 MOL     -0.127137
    179 H86         7.5440    3.5740    1.2760 h1        1 MOL      0.072677
    180 H87         6.6670    5.1220    1.3290 h1        1 MOL      0.072677
    181 H88         5.7710    3.5870    1.4290 h1        1 MOL      0.072677
    182 H89         5.7040    3.6520   -0.8870 hn        1 MOL      0.250257
    183 Ca1        -2.8740   -2.9980   -2.6800 Ca        1 MOL      1.694326
    184 O25        -2.4360   -1.3360   -0.4960 oh        1 MOL     -0.832183
    185 H90        -1.8120   -1.6570    0.1570 ho        1 MOL      0.408573
    186 H91        -2.3960   -0.3790   -0.4170 ho        1 MOL      0.408573
    187 O26        -3.4160   -3.3950   -5.3770 oh        1 MOL     -0.832183
    188 H92        -2.7560   -3.1790   -6.0350 ho        1 MOL      0.408573
    189 H93        -3.8010   -4.2150   -5.6760 ho        1 MOL      0.408573
    190 O27        -1.0810   -1.8320   -4.1760 oh        1 MOL     -0.832183
    191 H94        -0.6560   -0.9810   -4.3220 ho        1 MOL      0.408573
    192 H95        -0.4200   -2.4730   -4.4560 ho        1 MOL      0.408573
    193 O28        -0.4730   -3.5690   -1.6640 oh        1 MOL     -0.832183
    194 H96         0.3850   -3.9250   -1.9220 ho        1 MOL      0.408573
    195 H97        -0.3260   -3.1930   -0.7940 ho        1 MOL      0.408573
    196 O29        -1.5410   -5.2040   -4.0680 oh        1 MOL     -0.832183
    197 H98        -0.8460   -5.7810   -3.7460 ho        1 MOL      0.408573
    198 H99        -1.3500   -5.1050   -5.0040 ho        1 MOL      0.408573
@<TRIPOS>BOND
     1    1    2 1   
     2    1    4 1   
     3    1    5 1   
     4    1    6 1   
     5    2    3 2   
     6    2    7 1   
     7    7    8 1   
     8    7   15 1   
     9    8    9 1   
    10    8   11 1   
    11    8   16 1   
    12    9   10 2   
    13    9   19 1   
    14   11   12 1   
    15   11   17 1   
    16   11   18 1   
    17   12   13 1   
    18   12   14 1   
    19   19   20 1   
    20   19   28 1   
    21   20   21 1   
    22   20   23 1   
    23   20   29 1   
    24   21   22 2   
    25   21   41 1   
    26   23   24 1   
    27   23   30 1   
    28   23   31 1   
    29   24   25 1   
    30   24   32 1   
    31   24   33 1   
    32   25   26 1   
    33   25   34 1   
    34   25   35 1   
    35   26   27 1   
    36   26   36 1   
    37   26   37 1   
    38   27   38 1   
    39   27   39 1   
    40   27   40 1   
    41   41   42 1   
    42   41   49 1   
    43   42   43 1   
    44   42   45 1   
    45   42   50 1   
    46   43   44 2   
    47   43   53 1   
    48   45   46 1   
    49   45   51 1   
    50   45   52 1   
    51   46   47 1   
    52   46   48 1   
    53   53   54 1   
    54   53   57 1   
    55   54   55 1   
    56   54   58 1   
    57   54   59 1   
    58   55   56 2   
    59   55   60 1   
    60   60   61 1   
    61   60   68 1   
    62   61   62 1   
    63   61   64 1   
    64   61   69 1   
    65   62   63 2   
    66   62   72 1   
    67   64   65 1   
    68   64   70 1   
    69   64   71 1   
    70   65   66 1   
    71   65   67 1   
    72   72   73 1   
    73   72   76 1   
    74   73   74 1   
    75   73   77 1   
    76   73   78 1   
    77   74   75 2   
    78   74   79 1   
    79   79   80 1   
    80   79   86 1   
    81   80   81 1   
    82   80   83 1   
    83   80   87 1   
    84   81   82 2   
    85   81   93 1   
    86   83   84 1   
    87   83   85 1   
    88   83   88 1   
    89   84   90 1   
    90   84   91 1   
    91   84   92 1   
    92   85   89 1   
    93   93   94 1   
    94   93  101 1   
    95   94   95 1   
    96   94   97 1   
    97   94  102 1   
    98   95   96 2   
    99   95  112 1   
   100   97   98 1   
   101   97   99 1   
   102   97  103 1   
   103   98  100 1   
   104   98  104 1   
   105   98  105 1   
   106   99  106 1   
   107   99  107 1   
   108   99  108 1   
   109  100  109 1   
   110  100  110 1   
   111  100  111 1   
   112  112  113 1   
   113  112  119 1   
   114  113  114 1   
   115  113  116 1   
   116  113  120 1   
   117  114  115 2   
   118  114  126 1   
   119  116  117 1   
   120  116  118 1   
   121  116  121 1   
   122  117  123 1   
   123  117  124 1   
   124  117  125 1   
   125  118  122 1   
   126  126  127 1   
   127  126  133 1   
   128  127  128 1   
   129  127  130 1   
   130  127  134 1   
   131  128  129 2   
   132  128  140 1   
   133  130  131 1   
   134  130  132 1   
   135  130  135 1   
   136  131  137 1   
   137  131  138 1   
   138  131  139 1   
   139  132  136 1   
   140  140  141 1   
   141  140  149 1   
   142  141  142 1   
   143  141  144 1   
   144  141  150 1   
   145  142  143 2   
   146  142  162 1   
   147  144  145 1   
   148  144  151 1   
   149  144  152 1   
   150  145  146 1   
   151  145  153 1   
   152  145  154 1   
   153  146  147 1   
   154  146  155 1   
   155  146  156 1   
   156  147  148 1   
   157  147  157 1   
   158  147  158 1   
   159  148  159 1   
   160  148  160 1   
   161  148  161 1   
   162  162  163 1   
   163  162  171 1   
   164  163  164 1   
   165  163  166 1   
   166  163  172 1   
   167  164  165 2   
   168  164  177 1   
   169  166  167 1   
   170  166  173 1   
   171  166  174 1   
   172  167  168 1   
   173  167  175 1   
   174  167  176 1   
   175  168  169 1   
   176  168  170 1   
   177  177  178 1   
   178  177  182 1   
   179  178  179 1   
   180  178  180 1   
   181  178  181 1   
   182  184  185 1   
   183  184  186 1   
   184  187  188 1   
   185  187  189 1   
   186  190  191 1   
   187  190  192 1   
   188  193  194 1   
   189  193  195 1   
   190  196  197 1   
   191  196  198 1   
@<TRIPOS>SUBSTRUCTURE
     1 MOL         1 TEMP              0 ****  ****    0 ROOT
