@<TRIPOS>MOLECULE
MOL
  181   177     1     0     0
SMALL
resp


@<TRIPOS>ATOM
      1 C1         12.9150   -4.4100   -1.5880 c3        1 MOL     -0.265747
      2 C2         11.8200   -3.3520   -1.7850 c         1 MOL      0.624820
      3 O1         11.7800   -2.8450   -2.9450 o         1 MOL     -0.585570
      4 H1         13.8780   -3.9970   -1.8880 hc        1 MOL      0.069137
      5 H2         12.9570   -4.6990   -0.5370 hc        1 MOL      0.069137
      6 H3         12.6900   -5.2850   -2.1980 hc        1 MOL      0.069137
      7 N1         10.9940   -2.8920   -0.8070 n         1 MOL     -0.569374
      8 C3         10.8800   -3.3660    0.5970 c3        1 MOL      0.192446
      9 C4         11.2480   -2.3140    1.7080 c         1 MOL      0.359917
     10 O2         11.3710   -2.5640    2.9200 o         1 MOL     -0.542906
     11 C5          9.4750   -3.8360    0.8790 c3        1 MOL     -0.156095
     12 C6          8.3220   -2.9500    0.3750 c         1 MOL      0.715360
     13 O3          7.1720   -3.4740    0.2570 o         1 MOL     -0.734048
     14 O4          8.5660   -1.7310    0.1140 o         1 MOL     -0.734048
     15 H4         10.3760   -2.1680   -1.1570 hn        1 MOL      0.323346
     16 H5         11.4690   -4.2460    0.8470 h1        1 MOL      0.052151
     17 H6          9.2890   -4.0630    1.9340 hc        1 MOL      0.044995
     18 H7          9.3130   -4.7920    0.3820 hc        1 MOL      0.044995
     19 N2         11.3150   -1.0460    1.2850 n         1 MOL     -0.337135
     20 C7         11.7080    0.1530    2.0520 c3        1 MOL      0.291417
     21 C8         10.5670    1.1230    2.2490 c         1 MOL      0.348375
     22 O5         10.7850    2.2830    2.5930 o         1 MOL     -0.506689
     23 C9         12.8060    0.8010    1.1850 c3        1 MOL     -0.415738
     24 H8         11.1750   -0.8930    0.2930 hn        1 MOL      0.237194
     25 H9         12.1320   -0.1060    3.0150 h1        1 MOL      0.044457
     26 H10        13.0600    1.8070    1.5290 hc        1 MOL      0.114110
     27 H11        13.6810    0.1550    1.2060 hc        1 MOL      0.114110
     28 H12        12.4300    0.9570    0.1740 hc        1 MOL      0.114110
     29 N3          9.2980    0.6750    1.9860 n         1 MOL     -0.305281
     30 C10         8.0870    1.5100    2.1850 c3        1 MOL     -0.047136
     31 C11         6.7740    0.7290    2.3690 c         1 MOL      0.422438
     32 O6          6.6110   -0.3560    1.8470 o         1 MOL     -0.544987
     33 C12         7.9640    2.5420    1.0520 c3        1 MOL     -0.022017
     34 C13         8.0970    1.9140   -0.2980 c         1 MOL      0.773831
     35 O7          7.3140    1.0590   -0.7170 o         1 MOL     -0.732978
     36 O8          8.9490    2.3830   -1.1010 o         1 MOL     -0.732978
     37 H13         9.1930   -0.2630    1.6080 hn        1 MOL      0.276253
     38 H14         8.2420    2.1150    3.0810 h1        1 MOL      0.061143
     39 H15         8.8150    3.2110    1.1810 hc        1 MOL     -0.000063
     40 H16         6.9980    3.0520    1.1130 hc        1 MOL     -0.000063
     41 N4          5.7800    1.3300    3.0150 n         1 MOL     -0.282403
     42 C14         4.3830    1.0840    2.8430 c3        1 MOL     -0.347552
     43 C15         3.8990    1.3650    1.4480 c         1 MOL      0.803545
     44 O9          4.5360    0.9680    0.4560 o         1 MOL     -0.610838
     45 H17         6.1050    2.1400    3.5300 hn        1 MOL      0.259020
     46 H18         3.9390    1.7110    3.6240 h1        1 MOL      0.160629
     47 H19         4.1600    0.0650    3.1350 h1        1 MOL      0.160629
     48 N5          2.7620    2.0420    1.2320 n         1 MOL     -0.649667
     49 C16         2.2370    2.4220   -0.1070 c3        1 MOL      0.263130
     50 C17         1.2750    3.6010    0.1580 c         1 MOL      0.484209
     51 O10         0.6960    3.6820    1.2360 o         1 MOL     -0.462437
     52 C18         1.4770    1.2450   -0.6960 c3        1 MOL     -0.463409
     53 C19         1.1460    1.5500   -2.1630 c         1 MOL      0.528824
     54 N6         -0.0890    1.9160   -2.4300 n         1 MOL     -0.550203
     55 O11         1.9730    1.7400   -3.0270 o         1 MOL     -0.599980
     56 H20         2.2060    2.2980    2.0370 hn        1 MOL      0.318156
     57 H21         3.0840    2.7880   -0.6910 h1        1 MOL      0.059206
     58 H22         0.5120    1.1580   -0.1890 hc        1 MOL      0.190223
     59 H23         2.0600    0.3280   -0.6280 hc        1 MOL      0.190223
     60 H24        -0.6930    1.9600   -1.6260 hn        1 MOL      0.328734
     61 H25        -0.3500    1.9950   -3.4030 hn        1 MOL      0.328734
     62 N7          0.9840    4.4150   -0.8710 n         1 MOL     -0.577945
     63 C20        -0.2210    5.2180   -0.9860 c3        1 MOL      0.110726
     64 C21        -0.7970    5.3480   -2.3720 c         1 MOL      0.468674
     65 O12        -0.0990    4.9610   -3.2850 o         1 MOL     -0.498684
     66 H26         1.5810    4.3180   -1.6790 hn        1 MOL      0.337510
     67 H27        -0.0300    6.1920   -0.5330 h1        1 MOL      0.091075
     68 H28        -0.9990    4.8660   -0.3130 h1        1 MOL      0.091075
     69 N8         -1.9720    5.9780   -2.4960 n         1 MOL     -0.541638
     70 C22        -2.7830    6.4030   -1.3400 c3        1 MOL     -0.033780
     71 C23        -3.3970    5.1540   -0.6100 c         1 MOL      0.231812
     72 O13        -3.6020    5.2810    0.5900 o         1 MOL     -0.457701
     73 C24        -3.9040    7.3830   -1.7670 c3        1 MOL      0.422824
     74 C25        -4.8950    7.7980   -0.6280 c3        1 MOL     -0.227788
     75 O14        -3.2030    8.5630   -2.0640 oh        1 MOL     -0.657821
     76 H29        -2.2200    6.3100   -3.4190 hn        1 MOL      0.311104
     77 H30        -2.1960    6.8980   -0.5620 h1        1 MOL      0.100764
     78 H31        -4.4120    6.9570   -2.6230 h1        1 MOL     -0.023648
     79 H32        -2.4200    8.4120   -2.5980 ho        1 MOL      0.388719
     80 H33        -5.5980    6.9580   -0.6670 hc        1 MOL      0.074732
     81 H34        -4.4280    7.7900    0.3580 hc        1 MOL      0.074732
     82 H35        -5.4900    8.6810   -0.8550 hc        1 MOL      0.074732
     83 N9         -3.6390    3.9990   -1.2740 n         1 MOL     -0.177512
     84 C26        -4.3580    2.8800   -0.6900 c3        1 MOL      0.134739
     85 C27        -3.3650    1.7630   -0.1160 c         1 MOL      0.647854
     86 O15        -2.3330    1.5770   -0.7630 o         1 MOL     -0.678086
     87 C28        -5.5280    2.3750   -1.6080 c3        1 MOL      0.285103
     88 C29        -5.0500    1.4340   -2.7530 c3        1 MOL     -0.096604
     89 C30        -6.2810    3.5910   -2.1620 c3        1 MOL     -0.168321
     90 C31        -4.0500    2.0410   -3.7830 c3        1 MOL     -0.360718
     91 H36        -3.3940    3.9140   -2.2560 hn        1 MOL      0.218688
     92 H37        -4.9840    3.2430    0.1230 h1        1 MOL      0.046627
     93 H38        -6.1790    1.8090   -0.9390 hc        1 MOL     -0.084634
     94 H39        -5.9180    1.1160   -3.3380 hc        1 MOL      0.079850
     95 H40        -4.5750    0.5540   -2.3040 hc        1 MOL      0.079850
     96 H41        -6.2650    4.3300   -1.3610 hc        1 MOL      0.008451
     97 H42        -5.7210    4.0570   -2.9700 hc        1 MOL      0.008451
     98 H43        -7.2910    3.2920   -2.4300 hc        1 MOL      0.008451
     99 H44        -4.5640    2.7810   -4.3870 hc        1 MOL      0.084835
    100 H45        -3.2480    2.4990   -3.2140 hc        1 MOL      0.084835
    101 H46        -3.7200    1.2200   -4.4300 hc        1 MOL      0.084835
    102 N10        -3.7170    0.9310    0.8530 n         1 MOL     -0.484580
    103 C32        -4.9550    0.9360    1.6660 c3        1 MOL     -0.193134
    104 C33        -5.5810   -0.4820    1.8450 c         1 MOL      0.514437
    105 O16        -4.8610   -1.5010    1.9910 o         1 MOL     -0.462458
    106 C34        -4.5860    1.6150    3.0260 c3        1 MOL     -0.104375
    107 C35        -3.4200    1.0010    3.7840 c         1 MOL      0.709467
    108 O17        -2.3020    1.5590    3.6610 o         1 MOL     -0.716683
    109 O18        -3.6180    0.0700    4.6130 o         1 MOL     -0.716683
    110 H47        -3.0860    0.1600    1.0270 hn        1 MOL      0.385822
    111 H48        -5.6990    1.5530    1.1710 h1        1 MOL      0.075073
    112 H49        -5.4020    1.6140    3.7340 hc        1 MOL      0.026276
    113 H50        -4.4060    2.6850    2.9060 hc        1 MOL      0.026276
    114 N11        -6.9140   -0.5970    1.7670 n         1 MOL     -0.446165
    115 C36        -7.6080   -1.9150    1.6650 c3        1 MOL      0.380432
    116 C37        -8.7400   -1.8460    0.5930 c         1 MOL      0.181386
    117 O19        -9.1950   -0.7290    0.3340 o         1 MOL     -0.504590
    118 C38        -8.3360   -2.1790    2.9620 c3        1 MOL     -0.329006
    119 C39        -9.4330   -1.1160    3.3350 ca        1 MOL      0.218117
    120 C40        -8.9850    0.1770    3.6880 ca        1 MOL     -0.260017
    121 C41       -10.8350   -1.4090    3.3640 ca        1 MOL     -0.260017
    122 C42        -9.9070    1.1070    4.2830 ca        1 MOL     -0.043120
    123 C43       -11.7080   -0.3800    3.7590 ca        1 MOL     -0.043120
    124 C44       -11.2350    0.8160    4.2310 ca        1 MOL     -0.143163
    125 H51        -7.4550    0.2420    1.6450 hn        1 MOL      0.330142
    126 H52        -7.0440   -2.8180    1.4480 h1        1 MOL      0.017631
    127 H53        -7.5740   -2.2110    3.7380 hc        1 MOL      0.093875
    128 H54        -8.7950   -3.1610    2.8220 hc        1 MOL      0.093875
    129 H55        -7.9510    0.3670    3.9410 ha        1 MOL      0.142116
    130 H56       -11.1720   -2.3730    3.0030 ha        1 MOL      0.142116
    131 H57        -9.5630    2.0020    4.7710 ha        1 MOL      0.088913
    132 H58       -12.7430   -0.6720    3.8020 ha        1 MOL      0.088913
    133 H59       -11.9800    1.4380    4.7160 ha        1 MOL      0.077833
    134 N12        -9.3690   -2.9310    0.0690 n         1 MOL      0.156111
    135 C45        -8.9090   -4.2850    0.1650 c3        1 MOL     -0.025514
    136 C46        -7.5960   -4.5870   -0.5140 c         1 MOL      0.396162
    137 O20        -6.9690   -5.6060   -0.1900 o         1 MOL     -0.491372
    138 C47       -10.0060   -5.2200   -0.4110 c3        1 MOL     -0.223901
    139 C48       -11.2110   -4.3300   -0.4870 c3        1 MOL     -0.018220
    140 C49       -10.7030   -2.8800   -0.4560 c3        1 MOL     -0.018973
    141 H60        -8.9640   -4.5480    1.2300 h1        1 MOL      0.070383
    142 H61        -9.6580   -5.6180   -1.3610 hc        1 MOL      0.097696
    143 H62       -10.1840   -6.0860    0.2170 hc        1 MOL      0.097696
    144 H63       -11.7170   -4.4960   -1.4360 hc        1 MOL      0.015811
    145 H64       -11.9210   -4.4900    0.3270 hc        1 MOL      0.015811
    146 H65       -10.7520   -2.4290   -1.4470 h1        1 MOL      0.028613
    147 H66       -11.3290   -2.3010    0.2330 h1        1 MOL      0.028613
    148 N13        -7.0180   -3.6230   -1.3620 n         1 MOL     -0.430865
    149 C50        -5.7100   -3.7250   -2.0970 c3        1 MOL      0.093125
    150 C51        -5.7600   -2.9510   -3.4080 c         1 MOL      0.485016
    151 O21        -6.4300   -1.9000   -3.3530 o         1 MOL     -0.616064
    152 C52        -4.5540   -3.2730   -1.1770 c3        1 MOL      0.056819
    153 C53        -3.9560   -4.2680   -0.1940 c3        1 MOL     -0.149973
    154 C54        -3.1430   -5.3850   -0.8720 c         1 MOL      0.686227
    155 O22        -1.9460   -5.4550   -0.5520 o         1 MOL     -0.715561
    156 O23        -3.7550   -6.1840   -1.6220 o         1 MOL     -0.715561
    157 H67        -7.5270   -2.7640   -1.4510 hn        1 MOL      0.215206
    158 H68        -5.6910   -4.7780   -2.3810 h1        1 MOL      0.114729
    159 H69        -4.7490   -2.3540   -0.6220 hc        1 MOL     -0.021167
    160 H70        -3.7680   -3.0460   -1.8960 hc        1 MOL     -0.021167
    161 H71        -4.7500   -4.6750    0.4330 hc        1 MOL      0.034932
    162 H72        -3.2870   -3.6740    0.4320 hc        1 MOL      0.034932
    163 N14        -5.3200   -3.3470   -4.5670 n         1 MOL     -0.415400
    164 C55        -4.2660   -4.3660   -4.7240 c3        1 MOL      0.137616
    165 H73        -3.3440   -3.8870   -5.0520 h1        1 MOL      0.003194
    166 H74        -4.0970   -4.8640   -3.7700 h1        1 MOL      0.003194
    167 H75        -4.5780   -5.0990   -5.4680 h1        1 MOL      0.003194
    168 H76        -5.5040   -2.7030   -5.3280 hn        1 MOL      0.281948
    169 Ca1         5.9880   -1.1670   -0.5450 Ca        1 MOL      1.727553
    170 O24         7.0200   -1.3620   -2.8800 oh        1 MOL     -0.843523
    171 H77         7.1080   -0.6100   -3.4540 ho        1 MOL      0.420336
    172 H78         7.4000   -2.0940   -3.3740 ho        1 MOL      0.420336
    173 O25         4.2490   -0.0850   -2.3880 oh        1 MOL     -0.843523
    174 H79         3.7090    0.7020   -2.3330 ho        1 MOL      0.420336
    175 H80         4.0480   -0.4680   -3.2380 ho        1 MOL      0.420336
    176 O26         4.9930   -3.4320   -1.9390 oh        1 MOL     -0.843523
    177 H81         5.3220   -3.7930   -2.7640 ho        1 MOL      0.420336
    178 H82         4.2340   -3.9820   -1.7250 ho        1 MOL      0.420336
    179 O27         3.9330   -2.4640    0.8560 oh        1 MOL     -0.843523
    180 H83         4.2870   -2.5140    1.7520 ho        1 MOL      0.420336
    181 H84         3.6130   -3.3460    0.6720 ho        1 MOL      0.420336
@<TRIPOS>BOND
     1    1    2 1   
     2    1    4 1   
     3    1    5 1   
     4    1    6 1   
     5    2    3 2   
     6    2    7 1   
     7    7    8 1   
     8    7   15 1   
     9    8    9 1   
    10    8   11 1   
    11    8   16 1   
    12    9   10 2   
    13    9   19 1   
    14   11   12 1   
    15   11   17 1   
    16   11   18 1   
    17   12   13 1   
    18   12   14 1   
    19   19   20 1   
    20   19   24 1   
    21   20   21 1   
    22   20   23 1   
    23   20   25 1   
    24   21   22 2   
    25   21   29 1   
    26   23   26 1   
    27   23   27 1   
    28   23   28 1   
    29   29   30 1   
    30   29   37 1   
    31   30   31 1   
    32   30   33 1   
    33   30   38 1   
    34   31   32 2   
    35   31   41 1   
    36   33   34 1   
    37   33   39 1   
    38   33   40 1   
    39   34   35 1   
    40   34   36 1   
    41   41   42 1   
    42   41   45 1   
    43   42   43 1   
    44   42   46 1   
    45   42   47 1   
    46   43   44 2   
    47   43   48 1   
    48   48   49 1   
    49   48   56 1   
    50   49   50 1   
    51   49   52 1   
    52   49   57 1   
    53   50   51 2   
    54   50   62 1   
    55   52   53 1   
    56   52   58 1   
    57   52   59 1   
    58   53   54 1   
    59   53   55 2   
    60   54   60 1   
    61   54   61 1   
    62   62   63 1   
    63   62   66 1   
    64   63   64 1   
    65   63   67 1   
    66   63   68 1   
    67   64   65 2   
    68   64   69 1   
    69   69   70 1   
    70   69   76 1   
    71   70   71 1   
    72   70   73 1   
    73   70   77 1   
    74   71   72 2   
    75   71   83 1   
    76   73   74 1   
    77   73   75 1   
    78   73   78 1   
    79   74   80 1   
    80   74   81 1   
    81   74   82 1   
    82   75   79 1   
    83   83   84 1   
    84   83   91 1   
    85   84   85 1   
    86   84   87 1   
    87   84   92 1   
    88   85   86 2   
    89   85  102 1   
    90   87   88 1   
    91   87   89 1   
    92   87   93 1   
    93   88   90 1   
    94   88   94 1   
    95   88   95 1   
    96   89   96 1   
    97   89   97 1   
    98   89   98 1   
    99   90   99 1   
   100   90  100 1   
   101   90  101 1   
   102  102  103 1   
   103  102  110 1   
   104  103  104 1   
   105  103  106 1   
   106  103  111 1   
   107  104  105 2   
   108  104  114 1   
   109  106  107 1   
   110  106  112 1   
   111  106  113 1   
   112  107  108 1   
   113  107  109 1   
   114  114  115 1   
   115  114  125 1   
   116  115  116 1   
   117  115  118 1   
   118  115  126 1   
   119  116  117 2   
   120  116  134 1   
   121  118  119 1   
   122  118  127 1   
   123  118  128 1   
   124  119  120 ar  
   125  119  121 ar  
   126  120  122 ar  
   127  120  129 1   
   128  121  123 ar  
   129  121  130 1   
   130  122  124 ar  
   131  122  131 1   
   132  123  124 ar  
   133  123  132 1   
   134  124  133 1   
   135  134  135 1   
   136  134  140 1   
   137  135  136 1   
   138  135  138 1   
   139  135  141 1   
   140  136  137 2   
   141  136  148 1   
   142  138  139 1   
   143  138  142 1   
   144  138  143 1   
   145  139  140 1   
   146  139  144 1   
   147  139  145 1   
   148  140  146 1   
   149  140  147 1   
   150  148  149 1   
   151  148  157 1   
   152  149  150 1   
   153  149  152 1   
   154  149  158 1   
   155  150  151 2   
   156  150  163 1   
   157  152  153 1   
   158  152  159 1   
   159  152  160 1   
   160  153  154 1   
   161  153  161 1   
   162  153  162 1   
   163  154  155 1   
   164  154  156 1   
   165  163  164 1   
   166  163  168 1   
   167  164  165 1   
   168  164  166 1   
   169  164  167 1   
   170  170  171 1   
   171  170  172 1   
   172  173  174 1   
   173  173  175 1   
   174  176  177 1   
   175  176  178 1   
   176  179  180 1   
   177  179  181 1   
@<TRIPOS>SUBSTRUCTURE
     1 MOL         1 TEMP              0 ****  ****    0 ROOT
