@<TRIPOS>MOLECULE
MOL
  192   187     1     0     0
SMALL
resp


@<TRIPOS>ATOM
      1 C1         -6.7800   -4.4570    2.9780 c3        1 MOL     -0.377936
      2 C2         -5.9250   -3.4960    2.1100 c         1 MOL      0.696459
      3 O1         -5.3400   -3.8270    1.0360 o         1 MOL     -0.565210
      4 H1         -7.8370   -4.2450    2.8190 hc        1 MOL      0.104155
      5 H2         -6.5690   -5.4880    2.6950 hc        1 MOL      0.104155
      6 H3         -6.5340   -4.3120    4.0300 hc        1 MOL      0.104155
      7 N1         -6.0540   -2.2100    2.4220 n         1 MOL     -0.543529
      8 C3         -5.6330   -1.0490    1.6790 c3        1 MOL      0.371078
      9 C4         -4.1410   -0.7570    1.5640 c         1 MOL      0.162676
     10 O2         -3.7970    0.2800    0.9710 o         1 MOL     -0.399051
     11 C5         -6.3690    0.1490    2.2550 c3        1 MOL     -0.336980
     12 C6         -7.8460    0.0480    2.4130 c         1 MOL      0.838102
     13 O3         -8.3060   -0.4290    3.5040 o         1 MOL     -0.728469
     14 O4         -8.6060    0.5380    1.5620 o         1 MOL     -0.728469
     15 H4         -6.7350   -2.0100    3.1380 hn        1 MOL      0.259503
     16 H5         -5.9970   -1.0510    0.6610 h1        1 MOL      0.010707
     17 H6         -6.1920    1.0000    1.5960 hc        1 MOL      0.037997
     18 H7         -5.8780    0.5780    3.1350 hc        1 MOL      0.037997
     19 N2         -3.3330   -1.6860    2.0070 n         1 MOL     -0.059899
     20 C7         -1.8580   -1.6590    2.2440 c3        1 MOL      0.047004
     21 C8         -1.1610   -2.8580    1.4880 c         1 MOL      0.437306
     22 O5         -1.7000   -3.9500    1.5690 o         1 MOL     -0.493710
     23 C9         -1.5940   -1.8540    3.7510 c3        1 MOL     -0.220006
     24 C10        -2.0040   -0.5880    4.5280 c3        1 MOL      0.064326
     25 C11        -1.3300   -0.3040    5.8880 c3        1 MOL      0.198919
     26 C12        -1.6480   -1.3580    6.9670 c3        1 MOL      0.041426
     27 N3         -1.1620   -0.9900    8.3080 n4        1 MOL     -0.266604
     28 H8         -3.8920   -2.5120    2.1680 hn        1 MOL      0.124852
     29 H9         -1.3440   -0.7600    1.9050 h1        1 MOL      0.024599
     30 H10        -0.5180   -2.0170    3.8920 hc        1 MOL      0.077356
     31 H11        -2.2160   -2.6640    4.1020 hc        1 MOL      0.077356
     32 H12        -3.0830   -0.6370    4.6610 hc        1 MOL     -0.018303
     33 H13        -1.8260    0.2910    3.9090 hc        1 MOL     -0.018303
     34 H14        -1.6810    0.6430    6.3010 hc        1 MOL     -0.029505
     35 H15        -0.2470   -0.1920    5.8660 hc        1 MOL     -0.029505
     36 H16        -1.2960   -2.3360    6.6570 hx        1 MOL      0.048379
     37 H17        -2.7390   -1.3000    6.9580 hx        1 MOL      0.048379
     38 H18        -1.3340   -1.6700    9.0510 hn        1 MOL      0.288467
     39 H19        -0.1570   -0.8860    8.3980 hn        1 MOL      0.288467
     40 H20        -1.5760   -0.1470    8.6750 hn        1 MOL      0.288467
     41 N4          0.0470   -2.7760    0.9990 n         1 MOL     -0.282246
     42 C13         1.0040   -1.6160    0.8260 c3        1 MOL     -0.001125
     43 C14         1.4760   -0.8140    2.1120 c         1 MOL      0.566361
     44 O6          0.8190    0.0340    2.6380 o         1 MOL     -0.542974
     45 C15         0.5550   -0.5750   -0.2380 c3        1 MOL     -0.042905
     46 C16         0.6820   -1.1020   -1.6340 c         1 MOL      0.441623
     47 O7          1.2400   -2.1130   -2.0170 o         1 MOL     -0.685468
     48 O8          0.0310   -0.4780   -2.5080 o         1 MOL     -0.685468
     49 H21         0.2460   -3.6430    0.5200 hn        1 MOL      0.175357
     50 H22         1.9450   -2.0090    0.4540 h1        1 MOL     -0.031085
     51 H23         1.1720    0.3190   -0.1810 hc        1 MOL      0.105651
     52 H24        -0.4840   -0.2710   -0.1180 hc        1 MOL      0.105651
     53 N5          2.7050   -0.9980    2.5630 n         1 MOL     -0.463006
     54 C17         3.7770   -1.8880    2.1610 c3        1 MOL     -0.093430
     55 C18         4.8320   -2.3060    3.2150 c         1 MOL      0.635002
     56 O9          4.6740   -2.0190    4.4180 o         1 MOL     -0.581067
     57 H25         2.9140   -0.3230    3.2890 hn        1 MOL      0.314554
     58 H26         4.3830   -1.3350    1.4470 h1        1 MOL      0.137773
     59 H27         3.3920   -2.8250    1.7460 h1        1 MOL      0.137773
     60 N6          5.7990   -3.1020    2.8560 n         1 MOL     -0.628515
     61 C19         6.0800   -3.6900    1.5210 c3        1 MOL      0.264300
     62 C20         7.0490   -2.8250    0.7160 c         1 MOL      0.380632
     63 O10         7.8470   -2.1170    1.3030 o         1 MOL     -0.430685
     64 C21         6.6860   -5.0950    1.6140 c3        1 MOL     -0.166874
     65 C22         7.8590   -5.2240    2.4990 c         1 MOL      0.728054
     66 O11         7.7280   -5.1150    3.7040 o         1 MOL     -0.663788
     67 O12         8.9970   -5.3680    1.9620 o         1 MOL     -0.663788
     68 H28         6.4380   -3.4620    3.5530 hn        1 MOL      0.367553
     69 H29         5.2050   -3.8100    0.8840 h1        1 MOL     -0.058977
     70 H30         6.7780   -5.4970    0.6100 hc        1 MOL      0.002601
     71 H31         5.9000   -5.7380    2.0120 hc        1 MOL      0.002601
     72 N7          7.0210   -2.9170   -0.6210 n         1 MOL     -0.242531
     73 C23         7.8490   -2.1420   -1.5070 c3        1 MOL     -0.420278
     74 C24         7.3150   -0.6960   -1.8550 c         1 MOL      0.524709
     75 O13         8.1190    0.0680   -2.3560 o         1 MOL     -0.551234
     76 H32         6.3560   -3.5410   -1.0580 hn        1 MOL      0.221454
     77 H33         8.0680   -2.7520   -2.3820 h1        1 MOL      0.202179
     78 H34         8.8010   -1.8520   -1.0470 h1        1 MOL      0.202179
     79 N8          6.0630   -0.3320   -1.5860 n         1 MOL     -0.249462
     80 C25         5.4560    0.9580   -1.8920 c3        1 MOL      0.130521
     81 C26         5.1750    1.7000   -0.5580 c         1 MOL      0.360575
     82 O14         4.6400    1.1860    0.4490 o         1 MOL     -0.476152
     83 C27         4.1350    0.9010   -2.5770 c3        1 MOL      0.370835
     84 C28         4.2210    0.3100   -3.9580 c3        1 MOL     -0.158768
     85 O15         3.7080    2.2170   -2.7770 oh        1 MOL     -0.652062
     86 H35         5.4620   -1.0080   -1.1200 hn        1 MOL      0.066343
     87 H36         6.1320    1.5940   -2.4500 h1        1 MOL      0.049526
     88 H37         3.4230    0.3430   -1.9590 h1        1 MOL      0.077134
     89 H38         2.7570    2.1080   -2.7030 ho        1 MOL      0.422774
     90 H39         3.2850    0.2240   -4.5190 hc        1 MOL      0.021696
     91 H40         4.9780    0.7730   -4.6030 hc        1 MOL      0.021696
     92 H41         4.7190   -0.6610   -3.8810 hc        1 MOL      0.021696
     93 N9          5.4520    2.9900   -0.6090 n         1 MOL     -0.290494
     94 C29         5.4900    3.8770    0.5890 c3        1 MOL     -0.200357
     95 C30         4.1140    4.4570    0.9250 c         1 MOL      0.410469
     96 O16         3.8930    5.0080    2.0180 o         1 MOL     -0.530366
     97 C31         6.5440    4.9820    0.4700 c3        1 MOL      0.031791
     98 C32         6.0680    5.9990   -0.7320 c3        1 MOL      0.268605
     99 C33         7.8910    4.3710    0.2170 c3        1 MOL     -0.132325
    100 C34         7.0030    7.1300   -1.1650 c3        1 MOL     -0.272015
    101 H42         5.7150    3.4020   -1.4950 hn        1 MOL      0.291165
    102 H43         5.8470    3.1770    1.3470 h1        1 MOL      0.194237
    103 H44         6.5680    5.5940    1.3730 hc        1 MOL      0.042408
    104 H45         5.1080    6.4540   -0.5250 hc        1 MOL     -0.057783
    105 H46         6.0120    5.3820   -1.6310 hc        1 MOL     -0.057783
    106 H47         7.9020    3.9410   -0.7810 hc        1 MOL      0.044647
    107 H48         8.7120    5.0910    0.2210 hc        1 MOL      0.044647
    108 H49         8.1360    3.5630    0.9190 hc        1 MOL      0.044647
    109 H50         7.1220    7.7660   -0.2850 hc        1 MOL      0.055468
    110 H51         7.9420    6.6310   -1.4010 hc        1 MOL      0.055468
    111 H52         6.5350    7.7270   -1.9490 hc        1 MOL      0.055468
    112 N10         3.0180    4.3290    0.0980 n         1 MOL     -0.108420
    113 C35         1.6670    4.8820    0.3180 c3        1 MOL      0.012776
    114 C36         0.5460    3.8190    0.1400 c         1 MOL      0.449381
    115 O17         0.7900    2.8540   -0.5860 o         1 MOL     -0.409980
    116 C37         1.5640    6.0950   -0.5800 c3        1 MOL      0.328028
    117 C38         1.8810    5.7720   -2.0000 c3        1 MOL     -0.189430
    118 O18         2.3450    7.1720   -0.2140 oh        1 MOL     -0.638114
    119 H53         3.1430    3.7340   -0.7170 hn        1 MOL      0.010107
    120 H54         1.5880    5.2840    1.3270 h1        1 MOL      0.098921
    121 H55         0.5610    6.5200   -0.5470 h1        1 MOL     -0.015873
    122 H56         2.7800    7.5420   -0.9810 ho        1 MOL      0.409353
    123 H57         2.9300    5.9500   -2.2260 hc        1 MOL      0.047393
    124 H58         1.4360    4.8020   -2.2190 hc        1 MOL      0.047393
    125 H59         1.4110    6.4200   -2.7350 hc        1 MOL      0.047393
    126 N11        -0.5930    3.9980    0.8480 n         1 MOL     -0.519651
    127 C39        -1.7440    3.0640    0.5780 c3        1 MOL      0.054512
    128 C40        -2.3930    3.1980   -0.7870 c         1 MOL      0.368559
    129 O19        -1.9230    3.9930   -1.6190 o         1 MOL     -0.510174
    130 C41        -2.7620    3.3180    1.6850 c3        1 MOL      0.458496
    131 C42        -3.5210    4.6770    1.5110 c3        1 MOL     -0.175654
    132 O20        -2.2620    3.1820    2.9820 oh        1 MOL     -0.654550
    133 H60        -0.7120    4.7970    1.4560 hn        1 MOL      0.330932
    134 H61        -1.3800    2.0450    0.6760 h1        1 MOL      0.067365
    135 H62        -3.6220    2.6550    1.5790 h1        1 MOL     -0.018003
    136 H63        -2.8480    2.7320    3.6070 ho        1 MOL      0.391800
    137 H64        -4.3780    4.3950    0.9000 hc        1 MOL      0.033599
    138 H65        -3.8180    5.0120    2.5040 hc        1 MOL      0.033599
    139 H66        -2.9450    5.4660    1.0290 hc        1 MOL      0.033599
    140 N12        -3.5140    2.5390   -0.9990 n         1 MOL     -0.130927
    141 C43        -4.3470    2.5780   -2.1940 c3        1 MOL      0.016402
    142 C44        -4.8630    1.2380   -2.6050 c         1 MOL      0.551147
    143 O21        -5.6520    1.1630   -3.5710 o         1 MOL     -0.581494
    144 C45        -5.3970    3.5820   -1.8290 c3        1 MOL     -0.058103
    145 C46        -6.4180    3.0820   -0.8330 c3        1 MOL     -0.120918
    146 C47        -7.2980    4.3070   -0.3310 c3        1 MOL     -0.010277
    147 C48        -8.3400    3.7910    0.6210 c3        1 MOL     -0.029768
    148 N13        -9.4020    3.0220   -0.0410 n4        1 MOL     -0.317370
    149 H67        -3.8630    1.9090   -0.2870 hn        1 MOL      0.055046
    150 H68        -3.7230    2.9670   -2.9920 h1        1 MOL      0.100477
    151 H69        -5.9070    3.8140   -2.7620 hc        1 MOL      0.028512
    152 H70        -4.9350    4.5130   -1.4910 hc        1 MOL      0.028512
    153 H71        -5.8690    2.6740    0.0210 hc        1 MOL      0.081877
    154 H72        -6.9970    2.2690   -1.2800 hc        1 MOL      0.081877
    155 H73        -7.8470    4.6730   -1.1890 hc        1 MOL      0.036519
    156 H74        -6.7430    5.1130    0.1710 hc        1 MOL      0.036519
    157 H75        -8.7960    4.6600    1.0900 hx        1 MOL      0.082159
    158 H76        -7.8230    3.1430    1.3360 hx        1 MOL      0.082159
    159 H77        -9.9920    2.5860    0.6500 hn        1 MOL      0.314773
    160 H78        -9.9770    3.6130   -0.6240 hn        1 MOL      0.314773
    161 H79        -9.0600    2.2210   -0.5580 hn        1 MOL      0.314773
    162 N14        -4.4760    0.0930   -1.9930 n         1 MOL     -0.368782
    163 C49        -4.4490   -1.1880   -2.7020 c3        1 MOL     -0.021038
    164 C50        -5.8670   -1.7660   -2.8750 c         1 MOL      0.299377
    165 O22        -6.7200   -1.8710   -1.9530 o         1 MOL     -0.496433
    166 C51        -3.7020   -2.2030   -1.7590 c3        1 MOL      0.448192
    167 C52        -3.5650   -3.7160   -2.1190 c3        1 MOL     -0.337920
    168 C53        -2.8370   -3.8300   -3.3950 c         1 MOL      0.732961
    169 O23        -3.5260   -3.7280   -4.4300 o         1 MOL     -0.745309
    170 O24        -1.6530   -4.1870   -3.3720 o         1 MOL     -0.745309
    171 H80        -4.0730    0.1320   -1.0640 hn        1 MOL      0.152681
    172 H81        -3.9880   -1.1530   -3.6850 h1        1 MOL      0.099268
    173 H82        -4.0790   -2.0580   -0.7490 hc        1 MOL     -0.086594
    174 H83        -2.6480   -1.9220   -1.7270 hc        1 MOL     -0.086594
    175 H84        -4.5410   -4.2020   -2.0900 hc        1 MOL      0.080332
    176 H85        -3.0460   -4.2560   -1.3210 hc        1 MOL      0.080332
    177 N15        -6.1710   -2.3150   -4.0160 n         1 MOL     -0.060398
    178 C54        -7.4100   -3.0250   -4.3580 c3        1 MOL     -0.348564
    179 H86        -8.2430   -2.3220   -4.3530 h1        1 MOL      0.129833
    180 H87        -7.3150   -3.4680   -5.3490 h1        1 MOL      0.129833
    181 H88        -7.5940   -3.8100   -3.6250 h1        1 MOL      0.129833
    182 H89        -5.4850   -2.1030   -4.7270 hn        1 MOL      0.237848
    183 Ca1         0.8690   -4.0650   -3.5670 Ca        1 MOL      1.679677
    184 O25         3.3330   -3.1010   -4.4280 oh        1 MOL     -0.869313
    185 H90         4.2080   -3.4930   -4.3330 ho        1 MOL      0.432179
    186 H91         3.4810   -2.3080   -4.9350 ho        1 MOL      0.432179
    187 O26         0.7550   -1.7730   -4.7890 oh        1 MOL     -0.869313
    188 H92         0.1080   -1.3440   -5.3510 ho        1 MOL      0.432179
    189 H93         0.7440   -1.2470   -3.9810 ho        1 MOL      0.432179
    190 O27         0.4860   -4.7370   -6.1300 oh        1 MOL     -0.869313
    191 H94         0.6530   -4.4150   -7.0170 ho        1 MOL      0.432179
    192 H95         0.5330   -5.6850   -6.2020 ho        1 MOL      0.432179
@<TRIPOS>BOND
     1    1    2 1   
     2    1    4 1   
     3    1    5 1   
     4    1    6 1   
     5    2    3 2   
     6    2    7 1   
     7    7    8 1   
     8    7   15 1   
     9    8    9 1   
    10    8   11 1   
    11    8   16 1   
    12    9   10 2   
    13    9   19 1   
    14   11   12 1   
    15   11   17 1   
    16   11   18 1   
    17   12   13 1   
    18   12   14 1   
    19   19   20 1   
    20   19   28 1   
    21   20   21 1   
    22   20   23 1   
    23   20   29 1   
    24   21   22 2   
    25   21   41 1   
    26   23   24 1   
    27   23   30 1   
    28   23   31 1   
    29   24   25 1   
    30   24   32 1   
    31   24   33 1   
    32   25   26 1   
    33   25   34 1   
    34   25   35 1   
    35   26   27 1   
    36   26   36 1   
    37   26   37 1   
    38   27   38 1   
    39   27   39 1   
    40   27   40 1   
    41   41   42 1   
    42   41   49 1   
    43   42   43 1   
    44   42   45 1   
    45   42   50 1   
    46   43   44 2   
    47   43   53 1   
    48   45   46 1   
    49   45   51 1   
    50   45   52 1   
    51   46   47 1   
    52   46   48 1   
    53   53   54 1   
    54   53   57 1   
    55   54   55 1   
    56   54   58 1   
    57   54   59 1   
    58   55   56 2   
    59   55   60 1   
    60   60   61 1   
    61   60   68 1   
    62   61   62 1   
    63   61   64 1   
    64   61   69 1   
    65   62   63 2   
    66   62   72 1   
    67   64   65 1   
    68   64   70 1   
    69   64   71 1   
    70   65   66 1   
    71   65   67 1   
    72   72   73 1   
    73   72   76 1   
    74   73   74 1   
    75   73   77 1   
    76   73   78 1   
    77   74   75 2   
    78   74   79 1   
    79   79   80 1   
    80   79   86 1   
    81   80   81 1   
    82   80   83 1   
    83   80   87 1   
    84   81   82 2   
    85   81   93 1   
    86   83   84 1   
    87   83   85 1   
    88   83   88 1   
    89   84   90 1   
    90   84   91 1   
    91   84   92 1   
    92   85   89 1   
    93   93   94 1   
    94   93  101 1   
    95   94   95 1   
    96   94   97 1   
    97   94  102 1   
    98   95   96 2   
    99   95  112 1   
   100   97   98 1   
   101   97   99 1   
   102   97  103 1   
   103   98  100 1   
   104   98  104 1   
   105   98  105 1   
   106   99  106 1   
   107   99  107 1   
   108   99  108 1   
   109  100  109 1   
   110  100  110 1   
   111  100  111 1   
   112  112  113 1   
   113  112  119 1   
   114  113  114 1   
   115  113  116 1   
   116  113  120 1   
   117  114  115 2   
   118  114  126 1   
   119  116  117 1   
   120  116  118 1   
   121  116  121 1   
   122  117  123 1   
   123  117  124 1   
   124  117  125 1   
   125  118  122 1   
   126  126  127 1   
   127  126  133 1   
   128  127  128 1   
   129  127  130 1   
   130  127  134 1   
   131  128  129 2   
   132  128  140 1   
   133  130  131 1   
   134  130  132 1   
   135  130  135 1   
   136  131  137 1   
   137  131  138 1   
   138  131  139 1   
   139  132  136 1   
   140  140  141 1   
   141  140  149 1   
   142  141  142 1   
   143  141  144 1   
   144  141  150 1   
   145  142  143 2   
   146  142  162 1   
   147  144  145 1   
   148  144  151 1   
   149  144  152 1   
   150  145  146 1   
   151  145  153 1   
   152  145  154 1   
   153  146  147 1   
   154  146  155 1   
   155  146  156 1   
   156  147  148 1   
   157  147  157 1   
   158  147  158 1   
   159  148  159 1   
   160  148  160 1   
   161  148  161 1   
   162  162  163 1   
   163  162  171 1   
   164  163  164 1   
   165  163  166 1   
   166  163  172 1   
   167  164  165 2   
   168  164  177 1   
   169  166  167 1   
   170  166  173 1   
   171  166  174 1   
   172  167  168 1   
   173  167  175 1   
   174  167  176 1   
   175  168  169 1   
   176  168  170 1   
   177  177  178 1   
   178  177  182 1   
   179  178  179 1   
   180  178  180 1   
   181  178  181 1   
   182  184  185 1   
   183  184  186 1   
   184  187  188 1   
   185  187  189 1   
   186  190  191 1   
   187  190  192 1   
@<TRIPOS>SUBSTRUCTURE
     1 MOL         1 TEMP              0 ****  ****    0 ROOT
