@<TRIPOS>MOLECULE
MOL
  186   183     1     0     0
SMALL
resp


@<TRIPOS>ATOM
      1 C1         10.7600    5.4450   -3.3250 c3        1 MOL     -0.304340
      2 C2         10.4860    4.2130   -2.3980 c         1 MOL      0.823397
      3 O1         10.6420    3.0470   -2.7350 o         1 MOL     -0.625091
      4 H1         11.6730    5.9460   -3.0020 hc        1 MOL      0.072495
      5 H2         10.8770    5.1060   -4.3540 hc        1 MOL      0.072495
      6 H3          9.9230    6.1400   -3.2640 hc        1 MOL      0.072495
      7 N1         10.2590    4.4690   -1.1050 n         1 MOL     -0.465473
      8 C3         10.1640    3.4560   -0.0670 c3        1 MOL     -0.252108
      9 C4          8.8470    2.6730   -0.3590 c         1 MOL      0.398604
     10 O2          7.8370    3.2870   -0.7420 o         1 MOL     -0.639684
     11 C5         10.3510    4.0190    1.3300 c3        1 MOL      0.003733
     12 C6          9.4960    5.2320    1.7410 c         1 MOL      0.871017
     13 O3          8.4360    5.4940    1.0810 o         1 MOL     -0.755355
     14 O4          9.8880    5.9390    2.6630 o         1 MOL     -0.755355
     15 H4         10.2530    5.4370   -0.8350 hn        1 MOL      0.216311
     16 H5         10.8420    2.6200   -0.2010 h1        1 MOL      0.122668
     17 H6         11.3990    4.2720    1.4280 hc        1 MOL      0.049874
     18 H7         10.0280    3.2280    2.0080 hc        1 MOL      0.049874
     19 N2          8.8160    1.3430   -0.1300 n         1 MOL     -0.157959
     20 C7          7.8640    0.3890   -0.6980 c3        1 MOL      0.105279
     21 C8          6.9420   -0.2380    0.3280 c         1 MOL      0.348022
     22 O5          7.3350   -1.1870    1.0530 o         1 MOL     -0.481543
     23 C9          8.5640   -0.6740   -1.6130 c3        1 MOL     -0.520403
     24 C10         7.5560   -1.7310   -2.1670 c3        1 MOL      0.327340
     25 C11         8.2400   -2.7980   -3.1290 c3        1 MOL     -0.045287
     26 C12         7.3730   -3.4040   -4.1270 c3        1 MOL      0.121656
     27 N3          7.9770   -4.1680   -5.1840 n4        1 MOL     -0.304157
     28 H8          9.5860    0.9580    0.3950 hn        1 MOL      0.250423
     29 H9          7.2100    0.9270   -1.3850 h1        1 MOL      0.209203
     30 H10         9.3550   -1.2330   -1.1250 hc        1 MOL      0.130968
     31 H11         8.9290   -0.2820   -2.5640 hc        1 MOL      0.130968
     32 H12         6.8720   -1.1980   -2.8320 hc        1 MOL     -0.059632
     33 H13         7.0120   -2.2190   -1.3640 hc        1 MOL     -0.059632
     34 H14         8.6680   -3.5690   -2.4910 hc        1 MOL      0.034287
     35 H15         9.0360   -2.2610   -3.6540 hc        1 MOL      0.034287
     36 H16         6.7020   -2.7300   -4.6600 hx        1 MOL      0.031647
     37 H17         6.7230   -4.0800   -3.5800 hx        1 MOL      0.031647
     38 H18         7.2800   -4.6680   -5.7220 hn        1 MOL      0.252417
     39 H19         8.4970   -3.5390   -5.7850 hn        1 MOL      0.252417
     40 H20         8.6300   -4.8090   -4.7690 hn        1 MOL      0.252417
     41 N4          5.7840    0.3620    0.5220 n         1 MOL     -0.426056
     42 C13         4.7090    0.1750    1.4500 c3        1 MOL      0.321942
     43 C14         3.4030   -0.3210    0.8110 c         1 MOL      0.464033
     44 O6          3.1330    0.0440   -0.3230 o         1 MOL     -0.549996
     45 C15         4.5750    1.4700    2.2080 c3        1 MOL      0.012832
     46 C16         4.9680    2.8320    1.4820 c         1 MOL      0.772451
     47 O7          4.6570    2.9890    0.3060 o         1 MOL     -0.811329
     48 O8          5.5160    3.6990    2.1320 o         1 MOL     -0.811329
     49 H21         5.4990    0.9590   -0.2480 hn        1 MOL      0.177115
     50 H22         5.0170   -0.6290    2.1200 h1        1 MOL     -0.009282
     51 H23         5.2180    1.3820    3.0790 hc        1 MOL      0.002460
     52 H24         3.5590    1.5010    2.5910 hc        1 MOL      0.002460
     53 N5          2.4400   -1.0130    1.4410 n         1 MOL     -0.372314
     54 C17         2.3540   -1.5660    2.7930 c3        1 MOL      0.007708
     55 C18         2.9310   -2.9940    2.8340 c         1 MOL      0.511486
     56 O9          3.5720   -3.4410    1.8660 o         1 MOL     -0.531308
     57 H25         1.7110   -1.3670    0.8340 hn        1 MOL      0.234723
     58 H26         1.3060   -1.6270    3.0950 h1        1 MOL      0.063141
     59 H27         2.7630   -0.8790    3.5340 h1        1 MOL      0.063141
     60 N6          2.6690   -3.7180    3.9320 n         1 MOL     -0.430353
     61 C19         2.8570   -5.1910    3.9280 c3        1 MOL      0.044191
     62 C20         1.8730   -5.8080    2.9400 c         1 MOL      0.374114
     63 O10         0.6330   -5.7490    3.2900 o         1 MOL     -0.496348
     64 C21         2.6340   -5.6920    5.3930 c3        1 MOL     -0.148758
     65 C22         2.8270   -7.1980    5.4970 c         1 MOL      0.656282
     66 O11         3.8840   -7.6000    5.9350 o         1 MOL     -0.626559
     67 O12         1.8890   -7.9440    5.1540 o         1 MOL     -0.626559
     68 H28         2.1890   -3.3300    4.7250 hn        1 MOL      0.280749
     69 H29         3.8640   -5.4700    3.6390 h1        1 MOL      0.067469
     70 H30         1.6500   -5.4340    5.7950 hc        1 MOL      0.050765
     71 H31         3.4700   -5.2800    5.9590 hc        1 MOL      0.050765
     72 N7          2.2100   -6.3830    1.8350 n         1 MOL     -0.204519
     73 C23         1.2840   -6.9290    0.8150 c3        1 MOL     -0.144102
     74 C24         0.8350   -5.9530   -0.2690 c         1 MOL      0.581235
     75 O13         0.0530   -6.3580   -1.1380 o         1 MOL     -0.585849
     76 H32         3.1770   -6.4070    1.5480 hn        1 MOL      0.234904
     77 H33         0.3930   -7.4320    1.1910 h1        1 MOL      0.110269
     78 H34         1.8970   -7.5720    0.1850 h1        1 MOL      0.110269
     79 N8          1.3860   -4.7520   -0.3480 n         1 MOL     -0.379091
     80 C25         1.0220   -3.6420   -1.2710 c3        1 MOL     -0.011742
     81 C26         0.0560   -2.5790   -0.6870 c         1 MOL      0.606893
     82 O14        -0.0010   -2.3350    0.5020 o         1 MOL     -0.528487
     83 C27         2.3020   -2.9850   -1.7380 c3        1 MOL      0.424381
     84 C28         3.2270   -4.0010   -2.3410 c3        1 MOL     -0.382612
     85 O15         2.0380   -1.9280   -2.7050 oh        1 MOL     -0.671028
     86 H35         2.1230   -4.5030    0.3040 hn        1 MOL      0.236843
     87 H36         0.6000   -3.9870   -2.2140 h1        1 MOL      0.073222
     88 H37         2.8540   -2.5650   -0.8970 h1        1 MOL     -0.028752
     89 H38         2.8610   -1.4370   -2.8240 ho        1 MOL      0.410237
     90 H39         4.0230   -3.4650   -2.8660 hc        1 MOL      0.086732
     91 H40         3.7510   -4.5350   -1.5570 hc        1 MOL      0.086732
     92 H41         2.7380   -4.6420   -3.0760 hc        1 MOL      0.086732
     93 N9         -0.7870   -1.9560   -1.5360 n         1 MOL     -0.496139
     94 C29        -1.5510   -0.7340   -1.1020 c3        1 MOL     -0.073425
     95 C30        -3.0330   -1.0430   -0.8720 c         1 MOL      0.538873
     96 O16        -3.8200   -0.1970   -0.5020 o         1 MOL     -0.524833
     97 C31        -1.1530    0.4210   -2.0290 c3        1 MOL      0.184754
     98 C32        -1.7070    1.8650   -1.5050 c3        1 MOL      0.142318
     99 C33        -1.5960    0.2330   -3.5000 c3        1 MOL     -0.507040
    100 C34        -1.1600    2.3320   -0.1270 c3        1 MOL     -0.514369
    101 H42        -0.6940   -2.1740   -2.5200 hn        1 MOL      0.312877
    102 H43        -1.0770   -0.4430   -0.1670 h1        1 MOL      0.129253
    103 H44        -0.0780    0.5710   -1.9880 hc        1 MOL      0.017595
    104 H45        -2.7900    1.8240   -1.4760 hc        1 MOL     -0.002004
    105 H46        -1.4840    2.5990   -2.2780 hc        1 MOL     -0.002004
    106 H47        -1.4310    1.1970   -3.9760 hc        1 MOL      0.125470
    107 H48        -1.0970   -0.6590   -3.8840 hc        1 MOL      0.125470
    108 H49        -2.6670    0.0750   -3.5560 hc        1 MOL      0.125470
    109 H50        -1.6110    3.2950    0.1110 hc        1 MOL      0.132320
    110 H51        -1.4880    1.6150    0.6120 hc        1 MOL      0.132320
    111 H52        -0.0750    2.3240    0.0100 hc        1 MOL      0.132320
    112 N10        -3.4400   -2.2500   -1.2780 n         1 MOL     -0.281864
    113 C35        -4.8020   -2.7330   -1.1010 c3        1 MOL     -0.256099
    114 C36        -5.7300   -2.2520   -2.1720 c         1 MOL      0.810996
    115 O17        -5.4080   -2.4730   -3.3470 o         1 MOL     -0.598351
    116 C37        -4.8490   -4.2300   -1.0520 c3        1 MOL      0.355216
    117 C38        -3.7550   -5.1090   -0.3040 c3        1 MOL     -0.431639
    118 O18        -6.0780   -4.4940   -0.5350 oh        1 MOL     -0.619721
    119 H53        -2.7930   -2.9420   -1.6290 hn        1 MOL      0.206154
    120 H54        -5.2870   -2.2340   -0.2700 h1        1 MOL      0.105726
    121 H55        -5.0050   -4.6000   -2.0630 h1        1 MOL      0.060838
    122 H56        -5.9960   -4.3970    0.4230 ho        1 MOL      0.379094
    123 H57        -3.6390   -4.8800    0.7570 hc        1 MOL      0.137864
    124 H58        -4.2280   -6.0870   -0.2780 hc        1 MOL      0.137864
    125 H59        -2.8390   -4.9680   -0.8760 hc        1 MOL      0.137864
    126 N11        -6.9030   -1.6540   -1.8300 n         1 MOL     -0.703517
    127 C39        -7.8900   -1.1820   -2.8120 c3        1 MOL      0.048754
    128 C40        -8.3210    0.2490   -2.4350 c         1 MOL      0.585729
    129 O19        -8.7870    0.9620   -3.3870 o         1 MOL     -0.578152
    130 C41        -9.0510   -2.1960   -2.9390 c3        1 MOL      0.329320
    131 C42       -10.0820   -1.8050   -3.9850 c3        1 MOL     -0.414975
    132 O20        -9.7760   -2.5040   -1.7480 oh        1 MOL     -0.650715
    133 H60        -7.0690   -1.4380   -0.8550 hn        1 MOL      0.313252
    134 H61        -7.3640   -1.1290   -3.7680 h1        1 MOL      0.112762
    135 H62        -8.6970   -3.1900   -3.2250 h1        1 MOL      0.043317
    136 H63        -9.6130   -3.4400   -1.6440 ho        1 MOL      0.402384
    137 H64        -9.6080   -1.4510   -4.8920 hc        1 MOL      0.109106
    138 H65       -10.7350   -2.6470   -4.2090 hc        1 MOL      0.109106
    139 H66       -10.6980   -1.0900   -3.4420 hc        1 MOL      0.109106
    140 N12        -8.1750    0.6350   -1.1660 n         1 MOL     -0.343529
    141 C43        -8.8250    1.7420   -0.5470 c3        1 MOL     -0.094226
    142 C44        -7.9230    2.2900    0.6230 c         1 MOL      0.509286
    143 O21        -7.2540    1.5200    1.3430 o         1 MOL     -0.505034
    144 C45       -10.1570    1.3820    0.1260 c3        1 MOL      0.019254
    145 C46       -11.3070    1.3410   -0.9090 c3        1 MOL     -0.095246
    146 C47       -12.6190    1.0760   -0.2420 c3        1 MOL      0.039601
    147 C48       -12.7700   -0.3570    0.2540 c3        1 MOL      0.065296
    148 N13       -13.9240   -0.3870    1.2460 n4        1 MOL     -0.400302
    149 H67        -7.8090   -0.0650   -0.5450 hn        1 MOL      0.253789
    150 H68        -8.9490    2.5790   -1.2280 h1        1 MOL      0.128743
    151 H69       -10.3660    2.0700    0.9350 hc        1 MOL      0.031487
    152 H70       -10.1410    0.4210    0.6310 hc        1 MOL      0.031487
    153 H71       -11.1660    0.5030   -1.5920 hc        1 MOL      0.059780
    154 H72       -11.4680    2.3120   -1.3810 hc        1 MOL      0.059780
    155 H73       -13.4990    1.2770   -0.8510 hc        1 MOL      0.005021
    156 H74       -12.6520    1.7390    0.6260 hc        1 MOL      0.005021
    157 H75       -11.8490   -0.7050    0.7260 hx        1 MOL      0.080221
    158 H76       -13.0480   -0.9990   -0.5810 hx        1 MOL      0.080221
    159 H77       -13.5610    0.1650    2.0060 hn        1 MOL      0.287728
    160 H78       -14.7090    0.0370    0.7640 hn        1 MOL      0.287728
    161 H79       -14.1980   -1.2970    1.5740 hn        1 MOL      0.287728
    162 N14        -8.0040    3.5640    0.8100 n         1 MOL     -0.456938
    163 C49        -7.4210    4.3460    1.9580 c3        1 MOL      0.218202
    164 C50        -5.8850    4.2560    2.0120 c         1 MOL      0.342682
    165 O22        -5.4570    3.8510    3.0850 o         1 MOL     -0.517175
    166 C51        -7.9360    5.7690    1.9020 c3        1 MOL     -0.077610
    167 C52        -7.3030    6.5340    3.0960 c3        1 MOL     -0.248666
    168 C53        -7.4590    8.1370    2.8840 c         1 MOL      0.693803
    169 O23        -6.4580    8.8700    2.7520 o         1 MOL     -0.648893
    170 O24        -8.6040    8.5600    2.7330 o         1 MOL     -0.648893
    171 H80        -8.3890    4.1600    0.0890 hn        1 MOL      0.229370
    172 H81        -7.6780    3.8540    2.8960 h1        1 MOL      0.060936
    173 H82        -9.0230    5.7740    1.9220 hc        1 MOL      0.040119
    174 H83        -7.4770    6.1990    1.0140 hc        1 MOL      0.040119
    175 H84        -6.2470    6.2860    3.1620 hc        1 MOL      0.050953
    176 H85        -7.8910    6.2100    3.9550 hc        1 MOL      0.050953
    177 N15        -5.0830    4.4600    0.9800 n         1 MOL     -0.187096
    178 C54        -5.4540    4.8440   -0.4930 c3        1 MOL     -0.192424
    179 H86        -6.3760    4.3380   -0.7790 h1        1 MOL      0.098007
    180 H87        -5.5950    5.9220   -0.5640 h1        1 MOL      0.098007
    181 H88        -4.6500    4.5380   -1.1620 h1        1 MOL      0.098007
    182 H89        -4.1050    4.3680    1.2350 hn        1 MOL      0.232774
    183 Ca1         6.1750    5.1500   -0.0310 Ca        1 MOL      1.717586
    184 O25         6.3290    4.9260   -2.8950 oh        1 MOL     -0.850325
    185 H90         6.6880    4.5880   -3.7140 ho        1 MOL      0.427098
    186 H91         5.8060    5.6760   -3.1540 ho        1 MOL      0.427098
@<TRIPOS>BOND
     1    1    2 1   
     2    1    4 1   
     3    1    5 1   
     4    1    6 1   
     5    2    3 2   
     6    2    7 1   
     7    7    8 1   
     8    7   15 1   
     9    8    9 1   
    10    8   11 1   
    11    8   16 1   
    12    9   10 2   
    13    9   19 1   
    14   11   12 1   
    15   11   17 1   
    16   11   18 1   
    17   12   13 1   
    18   12   14 1   
    19   19   20 1   
    20   19   28 1   
    21   20   21 1   
    22   20   23 1   
    23   20   29 1   
    24   21   22 2   
    25   21   41 1   
    26   23   24 1   
    27   23   30 1   
    28   23   31 1   
    29   24   25 1   
    30   24   32 1   
    31   24   33 1   
    32   25   26 1   
    33   25   34 1   
    34   25   35 1   
    35   26   27 1   
    36   26   36 1   
    37   26   37 1   
    38   27   38 1   
    39   27   39 1   
    40   27   40 1   
    41   41   42 1   
    42   41   49 1   
    43   42   43 1   
    44   42   45 1   
    45   42   50 1   
    46   43   44 2   
    47   43   53 1   
    48   45   46 1   
    49   45   51 1   
    50   45   52 1   
    51   46   47 1   
    52   46   48 1   
    53   53   54 1   
    54   53   57 1   
    55   54   55 1   
    56   54   58 1   
    57   54   59 1   
    58   55   56 2   
    59   55   60 1   
    60   60   61 1   
    61   60   68 1   
    62   61   62 1   
    63   61   64 1   
    64   61   69 1   
    65   62   63 2   
    66   62   72 1   
    67   64   65 1   
    68   64   70 1   
    69   64   71 1   
    70   65   66 1   
    71   65   67 1   
    72   72   73 1   
    73   72   76 1   
    74   73   74 1   
    75   73   77 1   
    76   73   78 1   
    77   74   75 2   
    78   74   79 1   
    79   79   80 1   
    80   79   86 1   
    81   80   81 1   
    82   80   83 1   
    83   80   87 1   
    84   81   82 2   
    85   81   93 1   
    86   83   84 1   
    87   83   85 1   
    88   83   88 1   
    89   84   90 1   
    90   84   91 1   
    91   84   92 1   
    92   85   89 1   
    93   93   94 1   
    94   93  101 1   
    95   94   95 1   
    96   94   97 1   
    97   94  102 1   
    98   95   96 2   
    99   95  112 1   
   100   97   98 1   
   101   97   99 1   
   102   97  103 1   
   103   98  100 1   
   104   98  104 1   
   105   98  105 1   
   106   99  106 1   
   107   99  107 1   
   108   99  108 1   
   109  100  109 1   
   110  100  110 1   
   111  100  111 1   
   112  112  113 1   
   113  112  119 1   
   114  113  114 1   
   115  113  116 1   
   116  113  120 1   
   117  114  115 2   
   118  114  126 1   
   119  116  117 1   
   120  116  118 1   
   121  116  121 1   
   122  117  123 1   
   123  117  124 1   
   124  117  125 1   
   125  118  122 1   
   126  126  127 1   
   127  126  133 1   
   128  127  128 1   
   129  127  130 1   
   130  127  134 1   
   131  128  129 2   
   132  128  140 1   
   133  130  131 1   
   134  130  132 1   
   135  130  135 1   
   136  131  137 1   
   137  131  138 1   
   138  131  139 1   
   139  132  136 1   
   140  140  141 1   
   141  140  149 1   
   142  141  142 1   
   143  141  144 1   
   144  141  150 1   
   145  142  143 2   
   146  142  162 1   
   147  144  145 1   
   148  144  151 1   
   149  144  152 1   
   150  145  146 1   
   151  145  153 1   
   152  145  154 1   
   153  146  147 1   
   154  146  155 1   
   155  146  156 1   
   156  147  148 1   
   157  147  157 1   
   158  147  158 1   
   159  148  159 1   
   160  148  160 1   
   161  148  161 1   
   162  162  163 1   
   163  162  171 1   
   164  163  164 1   
   165  163  166 1   
   166  163  172 1   
   167  164  165 2   
   168  164  177 1   
   169  166  167 1   
   170  166  173 1   
   171  166  174 1   
   172  167  168 1   
   173  167  175 1   
   174  167  176 1   
   175  168  169 1   
   176  168  170 1   
   177  177  178 1   
   178  177  182 1   
   179  178  179 1   
   180  178  180 1   
   181  178  181 1   
   182  184  185 1   
   183  184  186 1   
@<TRIPOS>SUBSTRUCTURE
     1 MOL         1 TEMP              0 ****  ****    0 ROOT
