@<TRIPOS>MOLECULE
MOL
  184   179     1     0     0
SMALL
resp


@<TRIPOS>ATOM
      1 C1         -4.3260   -2.0740   -3.6620 c3        1 MOL     -0.373111
      2 C2         -5.6280   -2.1370   -2.8400 c         1 MOL      0.684362
      3 O1         -6.6750   -1.5780   -3.2440 o         1 MOL     -0.581433
      4 H1         -4.5160   -1.5550   -4.6010 hc        1 MOL      0.097830
      5 H2         -3.5650   -1.5360   -3.0970 hc        1 MOL      0.097830
      6 H3         -3.9770   -3.0860   -3.8710 hc        1 MOL      0.097830
      7 N1         -5.6770   -2.8800   -1.7130 n         1 MOL     -0.642756
      8 C3         -6.9250   -3.2240   -0.8830 c3        1 MOL      0.191099
      9 C4         -7.1630   -2.2000    0.2130 c         1 MOL      0.662377
     10 O2         -6.4980   -2.2540    1.2460 o         1 MOL     -0.606858
     11 C5         -6.8030   -4.6520   -0.4100 c3        1 MOL     -0.392664
     12 C6         -8.0330   -5.1490    0.4520 c         1 MOL      0.694928
     13 O3         -7.8460   -6.2350    1.0520 o         1 MOL     -0.697116
     14 O4         -9.0960   -4.4410    0.5990 o         1 MOL     -0.697116
     15 H4         -4.8360   -3.3580   -1.4060 hn        1 MOL      0.341666
     16 H5         -7.7670   -3.0870   -1.5700 h1        1 MOL      0.055170
     17 H6         -5.9350   -4.7330    0.2320 hc        1 MOL      0.111465
     18 H7         -6.6680   -5.3150   -1.2630 hc        1 MOL      0.111465
     19 N2         -8.0100   -1.1610    0.0180 n         1 MOL     -0.682795
     20 C7         -8.3130   -0.1390    0.9340 c3        1 MOL      0.518166
     21 C8         -7.5050    1.1460    0.5020 c         1 MOL      0.266698
     22 O5         -6.8160    1.7570    1.3670 o         1 MOL     -0.556823
     23 C9         -9.7990    0.1100    0.8600 c3        1 MOL     -0.348901
     24 H8         -8.4230   -1.0980   -0.9000 hn        1 MOL      0.313931
     25 H9         -8.1390   -0.3710    1.9910 h1        1 MOL      0.007813
     26 H10       -10.3310   -0.5840    1.5220 hc        1 MOL      0.079468
     27 H11        -9.9470    1.0660    1.3530 hc        1 MOL      0.079468
     28 H12       -10.2800    0.1170   -0.1230 hc        1 MOL      0.079468
     29 N3         -7.4910    1.5490   -0.7520 n         1 MOL     -0.026679
     30 C10        -6.9240    2.8000   -1.3330 c3        1 MOL     -0.418474
     31 C11        -5.3860    2.8280   -1.4710 c         1 MOL      0.701872
     32 O6         -4.7310    1.8210   -1.7310 o         1 MOL     -0.529140
     33 C12        -7.5910    3.1430   -2.6960 c3        1 MOL     -0.224546
     34 C13        -9.0750    3.1910   -2.6820 c         1 MOL      0.757656
     35 O7         -9.6860    2.2210   -3.0960 o         1 MOL     -0.738721
     36 O8         -9.6280    4.2310   -2.2200 o         1 MOL     -0.738721
     37 H13        -7.9430    1.0590   -1.5090 hn        1 MOL      0.232883
     38 H14        -7.1700    3.5950   -0.6240 h1        1 MOL      0.153807
     39 H15        -7.2820    2.3100   -3.3200 hc        1 MOL      0.065982
     40 H16        -7.1820    3.9280   -3.3250 hc        1 MOL      0.065982
     41 N4         -4.7470    3.9840   -1.1780 n         1 MOL     -0.472702
     42 C14        -3.2780    4.2210   -1.2310 c3        1 MOL     -0.014784
     43 C15        -2.6070    4.4160    0.1920 c         1 MOL      0.712255
     44 O9         -3.2980    4.6430    1.2010 o         1 MOL     -0.548075
     45 H17        -5.3240    4.7920   -0.9930 hn        1 MOL      0.274105
     46 H18        -3.1240    5.0950   -1.8630 h1        1 MOL      0.050729
     47 H19        -2.8620    3.3250   -1.6840 h1        1 MOL      0.050729
     48 N5         -1.2890    4.3040    0.2250 n         1 MOL     -0.627884
     49 C16        -0.4260    4.5570    1.3880 c3        1 MOL     -0.017929
     50 C17         0.6760    5.6690    1.1900 c         1 MOL      0.555041
     51 O10         0.9850    6.0420    0.0660 o         1 MOL     -0.499546
     52 C18         0.0910    3.1810    1.7550 c3        1 MOL      0.167033
     53 C19         0.6010    3.1620    3.1290 c         1 MOL      0.269280
     54 N6          1.9370    3.1420    3.2420 n         1 MOL     -0.516365
     55 O11        -0.1150    3.0600    4.0920 o         1 MOL     -0.516712
     56 H20        -0.7490    4.1620   -0.6200 hn        1 MOL      0.284454
     57 H21        -0.9170    4.7500    2.3380 h1        1 MOL      0.063938
     58 H22         0.9420    2.9190    1.1300 hc        1 MOL      0.099921
     59 H23        -0.6330    2.3770    1.6050 hc        1 MOL      0.099921
     60 H24         2.6650    3.1040    2.5450 hn        1 MOL      0.282569
     61 H25         2.2030    3.0350    4.2200 hn        1 MOL      0.282569
     62 N7          1.4440    6.1650    2.2210 n         1 MOL     -0.371756
     63 C20         2.5250    7.1270    2.0980 c3        1 MOL     -0.488293
     64 C21         3.8280    6.4720    1.5690 c         1 MOL      0.627166
     65 O12         4.4830    5.6880    2.2800 o         1 MOL     -0.530865
     66 H26         1.2920    5.7810    3.1490 hn        1 MOL      0.316750
     67 H27         2.6820    7.4310    3.1340 h1        1 MOL      0.197639
     68 H28         2.1230    7.8860    1.4380 h1        1 MOL      0.197639
     69 N8          4.2720    6.9420    0.4410 n         1 MOL     -0.254094
     70 C22         5.5740    6.5200   -0.0930 c3        1 MOL     -0.586578
     71 C23         5.5910    5.2430   -0.9190 c         1 MOL      0.596707
     72 O13         6.6150    4.9350   -1.5130 o         1 MOL     -0.558524
     73 C24         6.3450    7.5920   -0.8800 c3        1 MOL      0.647019
     74 C25         5.8650    7.8060   -2.2730 c3        1 MOL     -0.250373
     75 O14         6.2700    8.7880   -0.1720 oh        1 MOL     -0.683949
     76 H29         3.8150    7.6470   -0.1120 hn        1 MOL      0.258896
     77 H30         6.1810    6.3780    0.8020 h1        1 MOL      0.210697
     78 H31         7.3860    7.3380   -1.0460 h1        1 MOL      0.005872
     79 H32         5.3890    8.9370    0.1900 ho        1 MOL      0.382681
     80 H33         6.2100    8.7930   -2.5750 hc        1 MOL      0.050871
     81 H34         6.3450    7.1320   -2.9840 hc        1 MOL      0.050871
     82 H35         4.7820    7.7700   -2.4190 hc        1 MOL      0.050871
     83 N9          4.5090    4.4550   -0.9070 n         1 MOL     -0.168212
     84 C26         4.2680    3.2030   -1.5230 c3        1 MOL     -0.089984
     85 C27         3.6740    2.3150   -0.4180 c         1 MOL      0.377933
     86 O15         3.3350    2.7520    0.6660 o         1 MOL     -0.381401
     87 C28         3.3480    3.4420   -2.7900 c3        1 MOL      0.104939
     88 C29         1.9240    3.8590   -2.3540 c3        1 MOL      0.076225
     89 C30         3.9090    4.4290   -3.8030 c3        1 MOL     -0.373051
     90 C31         0.9040    4.0160   -3.3770 c3        1 MOL     -0.039167
     91 H36         3.7590    4.6910   -0.2770 hn        1 MOL      0.129777
     92 H37         5.2690    2.8810   -1.8160 h1        1 MOL      0.089193
     93 H38         3.1160    2.4850   -3.2430 hc        1 MOL      0.005329
     94 H39         2.0250    4.8400   -1.8960 hc        1 MOL     -0.027880
     95 H40         1.4710    3.2380   -1.5860 hc        1 MOL     -0.027880
     96 H41         3.1920    4.4060   -4.6220 hc        1 MOL      0.106411
     97 H42         3.8650    5.4640   -3.4460 hc        1 MOL      0.106411
     98 H43         4.9000    4.1090   -4.1260 hc        1 MOL      0.106411
     99 H44        -0.0530    4.1350   -2.8660 hc        1 MOL      0.009303
    100 H45         0.9870    4.8710   -4.0490 hc        1 MOL      0.009303
    101 H46         0.8900    3.1890   -4.0920 hc        1 MOL      0.009303
    102 N10         3.4710    1.0650   -0.6720 n         1 MOL     -0.345261
    103 C32         2.7780    0.1080    0.2870 c3        1 MOL     -0.106298
    104 C33         3.5540   -1.1580    0.4080 c         1 MOL      0.660712
    105 O16         2.9710   -2.1560    0.7960 o         1 MOL     -0.549787
    106 C34         1.3510   -0.1600   -0.0770 c3        1 MOL     -0.291579
    107 C35         0.2300   -0.3320    0.9800 c         1 MOL      0.786499
    108 O17         0.5830   -0.6980    2.1480 o         1 MOL     -0.788077
    109 O18        -0.9740   -0.3650    0.7560 o         1 MOL     -0.788077
    110 H47         3.7930    0.6640   -1.5400 hn        1 MOL      0.249516
    111 H48         2.7860    0.5510    1.2820 h1        1 MOL      0.085843
    112 H49         1.2860   -0.9580   -0.8080 hc        1 MOL      0.115467
    113 H50         0.9120    0.5060   -0.8170 hc        1 MOL      0.115467
    114 N11         4.8430   -1.2390    0.0630 n         1 MOL     -0.458498
    115 C36         5.6370   -2.4590    0.1390 c3        1 MOL      0.093182
    116 C37         5.0590   -3.6810   -0.7060 c         1 MOL      0.456151
    117 O19         4.7960   -3.5130   -1.8680 o         1 MOL     -0.502384
    118 C38         7.1380   -2.1480   -0.1080 c3        1 MOL     -0.238626
    119 C39         8.1130   -3.2990    0.1520 ca        1 MOL      0.194893
    120 C40         8.4770   -3.6310    1.4640 ca        1 MOL     -0.245935
    121 C41         8.4920   -4.1040   -0.8630 ca        1 MOL     -0.245935
    122 C42         9.1140   -4.8580    1.7240 ca        1 MOL     -0.047276
    123 C43         9.1880   -5.3050   -0.6420 ca        1 MOL     -0.047276
    124 C44         9.4850   -5.7010    0.6850 ca        1 MOL     -0.176632
    125 H51         5.2640   -0.3670   -0.2540 hn        1 MOL      0.254562
    126 H52         5.5420   -2.7320    1.1880 h1        1 MOL      0.066803
    127 H53         7.3360   -1.3760    0.6370 hc        1 MOL      0.090637
    128 H54         7.3580   -1.7450   -1.0960 hc        1 MOL      0.090637
    129 H55         8.1540   -3.0250    2.3050 ha        1 MOL      0.133392
    130 H56         8.1330   -3.9490   -1.8630 ha        1 MOL      0.133392
    131 H57         9.2610   -5.1590    2.7640 ha        1 MOL      0.094752
    132 H58         9.4760   -5.9880   -1.4400 ha        1 MOL      0.094752
    133 H59         9.8600   -6.6880    0.9280 ha        1 MOL      0.118013
    134 N12         4.9720   -4.9230   -0.1770 n         1 MOL      0.011579
    135 C45         4.7250   -6.1230   -0.9880 c3        1 MOL     -0.010662
    136 C46         3.3110   -6.1270   -1.5550 c         1 MOL      0.350285
    137 O20         3.0240   -6.9600   -2.4250 o         1 MOL     -0.522020
    138 C47         5.0850   -7.3480   -0.0660 c3        1 MOL     -0.123589
    139 C48         5.0140   -6.7430    1.3410 c3        1 MOL      0.164415
    140 C49         5.3880   -5.2830    1.1410 c3        1 MOL     -0.319519
    141 H60         5.3840   -6.0540   -1.8630 h1        1 MOL      0.075527
    142 H61         4.4780   -8.2470   -0.1200 hc        1 MOL      0.062098
    143 H62         6.1320   -7.5340   -0.2960 hc        1 MOL      0.062098
    144 H63         3.9900   -6.7310    1.6920 hc        1 MOL     -0.013850
    145 H64         5.6380   -7.2970    2.0480 hc        1 MOL     -0.013850
    146 H65         5.0190   -4.6010    1.9110 h1        1 MOL      0.095715
    147 H66         6.4630   -5.2790    1.2940 h1        1 MOL      0.095715
    148 N13         2.4070   -5.2810   -1.1250 n         1 MOL     -0.166322
    149 C50         1.0970   -5.0370   -1.8890 c3        1 MOL     -0.261675
    150 C51         1.3730   -4.2840   -3.1820 c         1 MOL      0.441961
    151 O21         0.5740   -4.3450   -4.1440 o         1 MOL     -0.551204
    152 C52         0.1100   -4.2050   -1.0970 c3        1 MOL      0.130781
    153 C53        -0.2260   -4.9520    0.2080 c3        1 MOL      0.009602
    154 C54        -1.2060   -4.2200    1.0800 c         1 MOL      0.897758
    155 O22        -0.8790   -3.5140    2.1160 o         1 MOL     -0.822222
    156 O23        -2.4400   -4.2880    0.8030 o         1 MOL     -0.822222
    157 H67         2.6720   -4.6680   -0.3700 hn        1 MOL      0.254450
    158 H68         0.5760   -5.9490   -2.1480 h1        1 MOL      0.181343
    159 H69        -0.8640   -4.1480   -1.5680 hc        1 MOL      0.017218
    160 H70         0.4750   -3.2020   -0.9050 hc        1 MOL      0.017218
    161 H71         0.6710   -5.0180    0.8210 hc        1 MOL     -0.051434
    162 H72        -0.5880   -5.9720    0.0750 hc        1 MOL     -0.051434
    163 N14         2.4870   -3.5830   -3.3050 n         1 MOL     -0.072771
    164 C55         2.9370   -2.6020   -4.3150 c3        1 MOL     -0.202980
    165 H73         2.2920   -2.6610   -5.1910 h1        1 MOL      0.088431
    166 H74         2.8870   -1.5980   -3.8950 h1        1 MOL      0.088431
    167 H75         3.9650   -2.8240   -4.6050 h1        1 MOL      0.088431
    168 H76         3.0450   -3.5800   -2.4630 hn        1 MOL      0.076279
    169 Ca1        -1.6990   -1.3190    3.1210 Ca        1 MOL      1.718923
    170 O24        -0.8020   -2.7930    5.1480 oh        1 MOL     -0.826969
    171 H77        -0.1230   -2.3450    5.6630 ho        1 MOL      0.412520
    172 H78        -0.6030   -3.7220    5.2510 ho        1 MOL      0.412520
    173 O25        -1.0290    0.4870    5.0040 oh        1 MOL     -0.826969
    174 H79        -0.9610    1.4000    4.7010 ho        1 MOL      0.412520
    175 H80        -0.4900    0.4550    5.7810 ho        1 MOL      0.412520
    176 O26        -3.8140   -2.0760    1.6980 oh        1 MOL     -0.826969
    177 H81        -4.7590   -2.0480    1.5860 ho        1 MOL      0.412520
    178 H82        -3.5410   -2.8920    1.2790 ho        1 MOL      0.412520
    179 O27        -3.6430   -1.8330    4.7250 oh        1 MOL     -0.826969
    180 H83        -3.6600   -2.3560    5.5230 ho        1 MOL      0.412520
    181 H84        -4.5550   -1.7090    4.4910 ho        1 MOL      0.412520
    182 O28        -3.2210    0.8450    3.0280 oh        1 MOL     -0.826969
    183 H85        -3.4090    1.0120    2.0950 ho        1 MOL      0.412520
    184 H86        -4.0510    1.0080    3.4710 ho        1 MOL      0.412520
@<TRIPOS>BOND
     1    1    2 1   
     2    1    4 1   
     3    1    5 1   
     4    1    6 1   
     5    2    3 2   
     6    2    7 1   
     7    7    8 1   
     8    7   15 1   
     9    8    9 1   
    10    8   11 1   
    11    8   16 1   
    12    9   10 2   
    13    9   19 1   
    14   11   12 1   
    15   11   17 1   
    16   11   18 1   
    17   12   13 1   
    18   12   14 1   
    19   19   20 1   
    20   19   24 1   
    21   20   21 1   
    22   20   23 1   
    23   20   25 1   
    24   21   22 2   
    25   21   29 1   
    26   23   26 1   
    27   23   27 1   
    28   23   28 1   
    29   29   30 1   
    30   29   37 1   
    31   30   31 1   
    32   30   33 1   
    33   30   38 1   
    34   31   32 2   
    35   31   41 1   
    36   33   34 1   
    37   33   39 1   
    38   33   40 1   
    39   34   35 1   
    40   34   36 1   
    41   41   42 1   
    42   41   45 1   
    43   42   43 1   
    44   42   46 1   
    45   42   47 1   
    46   43   44 2   
    47   43   48 1   
    48   48   49 1   
    49   48   56 1   
    50   49   50 1   
    51   49   52 1   
    52   49   57 1   
    53   50   51 2   
    54   50   62 1   
    55   52   53 1   
    56   52   58 1   
    57   52   59 1   
    58   53   54 1   
    59   53   55 2   
    60   54   60 1   
    61   54   61 1   
    62   62   63 1   
    63   62   66 1   
    64   63   64 1   
    65   63   67 1   
    66   63   68 1   
    67   64   65 2   
    68   64   69 1   
    69   69   70 1   
    70   69   76 1   
    71   70   71 1   
    72   70   73 1   
    73   70   77 1   
    74   71   72 2   
    75   71   83 1   
    76   73   74 1   
    77   73   75 1   
    78   73   78 1   
    79   74   80 1   
    80   74   81 1   
    81   74   82 1   
    82   75   79 1   
    83   83   84 1   
    84   83   91 1   
    85   84   85 1   
    86   84   87 1   
    87   84   92 1   
    88   85   86 2   
    89   85  102 1   
    90   87   88 1   
    91   87   89 1   
    92   87   93 1   
    93   88   90 1   
    94   88   94 1   
    95   88   95 1   
    96   89   96 1   
    97   89   97 1   
    98   89   98 1   
    99   90   99 1   
   100   90  100 1   
   101   90  101 1   
   102  102  103 1   
   103  102  110 1   
   104  103  104 1   
   105  103  106 1   
   106  103  111 1   
   107  104  105 2   
   108  104  114 1   
   109  106  107 1   
   110  106  112 1   
   111  106  113 1   
   112  107  108 1   
   113  107  109 1   
   114  114  115 1   
   115  114  125 1   
   116  115  116 1   
   117  115  118 1   
   118  115  126 1   
   119  116  117 2   
   120  116  134 1   
   121  118  119 1   
   122  118  127 1   
   123  118  128 1   
   124  119  120 ar  
   125  119  121 ar  
   126  120  122 ar  
   127  120  129 1   
   128  121  123 ar  
   129  121  130 1   
   130  122  124 ar  
   131  122  131 1   
   132  123  124 ar  
   133  123  132 1   
   134  124  133 1   
   135  134  135 1   
   136  134  140 1   
   137  135  136 1   
   138  135  138 1   
   139  135  141 1   
   140  136  137 2   
   141  136  148 1   
   142  138  139 1   
   143  138  142 1   
   144  138  143 1   
   145  139  140 1   
   146  139  144 1   
   147  139  145 1   
   148  140  146 1   
   149  140  147 1   
   150  148  149 1   
   151  148  157 1   
   152  149  150 1   
   153  149  152 1   
   154  149  158 1   
   155  150  151 2   
   156  150  163 1   
   157  152  153 1   
   158  152  159 1   
   159  152  160 1   
   160  153  154 1   
   161  153  161 1   
   162  153  162 1   
   163  154  155 1   
   164  154  156 1   
   165  163  164 1   
   166  163  168 1   
   167  164  165 1   
   168  164  166 1   
   169  164  167 1   
   170  170  171 1   
   171  170  172 1   
   172  173  174 1   
   173  173  175 1   
   174  176  177 1   
   175  176  178 1   
   176  179  180 1   
   177  179  181 1   
   178  182  183 1   
   179  182  184 1   
@<TRIPOS>SUBSTRUCTURE
     1 MOL         1 TEMP              0 ****  ****    0 ROOT
