@<TRIPOS>MOLECULE
MOL
  181   177     1     0     0
SMALL
resp


@<TRIPOS>ATOM
      1 C1         10.1750   -6.5870   -0.8070 c3        1 MOL     -0.480336
      2 C2          9.7220   -5.2130   -1.3460 c         1 MOL      0.876977
      3 O1          8.7420   -5.2080   -2.0610 o         1 MOL     -0.615094
      4 H1          9.6380   -7.3780   -1.3320 hc        1 MOL      0.122095
      5 H2         11.2470   -6.7070   -0.9690 hc        1 MOL      0.122095
      6 H3          9.9600   -6.6490    0.2600 hc        1 MOL      0.122095
      7 N1         10.3750   -4.1280   -0.9880 n         1 MOL     -0.651257
      8 C3         11.5480   -3.9810   -0.0280 c3        1 MOL      0.027388
      9 C4         12.4480   -2.7160   -0.2310 c         1 MOL      0.577731
     10 O2         13.5820   -2.7840    0.2060 o         1 MOL     -0.559515
     11 C5         10.9980   -3.9050    1.3990 c3        1 MOL     -0.061315
     12 C6          9.9110   -2.7980    1.5580 c         1 MOL      0.745356
     13 O3          8.8050   -3.0560    2.1330 o         1 MOL     -0.760747
     14 O4          9.9870   -1.7400    0.9360 o         1 MOL     -0.760747
     15 H4          9.9930   -3.2680   -1.3640 hn        1 MOL      0.246141
     16 H5         12.2450   -4.8130   -0.0570 h1        1 MOL      0.081096
     17 H6         11.7910   -3.7590    2.1280 hc        1 MOL      0.020401
     18 H7         10.5430   -4.8670    1.6150 hc        1 MOL      0.020401
     19 N2         11.9930   -1.7320   -0.9960 n         1 MOL     -0.473033
     20 C7         12.6890   -0.5610   -1.3290 c3        1 MOL      0.305914
     21 C8         11.8910    0.7610   -1.4010 c         1 MOL      0.395583
     22 O5         12.2690    1.7820   -1.9590 o         1 MOL     -0.546240
     23 C9         13.3310   -0.8740   -2.7280 c3        1 MOL     -0.369612
     24 H8         11.0490   -1.8720   -1.3200 hn        1 MOL      0.331225
     25 H9         13.4610   -0.2930   -0.6100 h1        1 MOL      0.035009
     26 H10        14.1120   -1.6350   -2.7790 hc        1 MOL      0.092941
     27 H11        12.4800   -1.0880   -3.3760 hc        1 MOL      0.092941
     28 H12        13.6970    0.0610   -3.1600 hc        1 MOL      0.092941
     29 N3         10.6760    0.7450   -0.8110 n         1 MOL     -0.139600
     30 C10         9.7780    1.8990   -0.7650 c3        1 MOL      0.001760
     31 C11         9.0880    1.9890    0.5830 c         1 MOL      0.301534
     32 O6          8.9860    1.0480    1.3860 o         1 MOL     -0.437740
     33 C12         8.8450    1.9890   -1.9500 c3        1 MOL     -0.066634
     34 C13         7.7900    0.8790   -2.0270 c         1 MOL      0.610453
     35 O7          6.9610    0.9260   -2.8910 o         1 MOL     -0.650735
     36 O8          7.9410   -0.1530   -1.3210 o         1 MOL     -0.650735
     37 H13        10.3510   -0.1180   -0.3980 hn        1 MOL      0.055725
     38 H14        10.3890    2.7900   -0.8980 h1        1 MOL      0.049702
     39 H15         9.4000    1.9750   -2.8910 hc        1 MOL      0.032540
     40 H16         8.3110    2.9410   -1.9470 hc        1 MOL      0.032540
     41 N4          8.4680    3.0930    0.9050 n         1 MOL     -0.221618
     42 C14         7.4570    3.1920    1.9790 c3        1 MOL     -0.412859
     43 C15         6.1960    2.3310    1.7040 c         1 MOL      0.768994
     44 O9          6.3030    1.2350    1.1730 o         1 MOL     -0.566868
     45 H17         8.5680    3.8810    0.2840 hn        1 MOL      0.267365
     46 H18         7.0050    4.1860    1.9480 h1        1 MOL      0.161057
     47 H19         7.8670    2.9320    2.9540 h1        1 MOL      0.161057
     48 N5          5.0040    2.7620    2.1600 n         1 MOL     -0.616169
     49 C16         3.6730    2.0900    1.9430 c3        1 MOL      0.183698
     50 C17         2.4780    2.9670    1.5120 c         1 MOL      0.657062
     51 O10         2.2880    4.0050    2.0770 o         1 MOL     -0.549027
     52 C18         3.2300    1.3070    3.1450 c3        1 MOL     -0.129763
     53 C19         2.5190    0.0350    2.7190 c         1 MOL      0.538116
     54 N6          1.2140    0.1130    2.6180 n         1 MOL     -0.716297
     55 O11         3.0650   -0.9800    2.2480 o         1 MOL     -0.531333
     56 H20         4.9890    3.7030    2.5230 hn        1 MOL      0.300041
     57 H21         3.8010    1.2980    1.1980 h1        1 MOL     -0.002561
     58 H22         2.5850    1.7970    3.8720 hc        1 MOL      0.053186
     59 H23         3.9780    0.8220    3.7770 hc        1 MOL      0.053186
     60 H24         0.8040    0.9440    3.0360 hn        1 MOL      0.391451
     61 H25         0.6850   -0.6550    2.2500 hn        1 MOL      0.391451
     62 N7          1.5990    2.4910    0.6380 n         1 MOL     -0.752713
     63 C20         0.4530    3.2730    0.1280 c3        1 MOL      0.270518
     64 C21         0.7660    4.3230   -0.8860 c         1 MOL      0.478279
     65 O12         1.8180    4.2470   -1.5490 o         1 MOL     -0.572897
     66 H26         1.8040    1.5840    0.2420 hn        1 MOL      0.410982
     67 H27         0.1060    3.7890    1.0230 h1        1 MOL      0.038902
     68 H28        -0.3030    2.5790   -0.2480 h1        1 MOL      0.038902
     69 N8         -0.0270    5.3220   -1.0090 n         1 MOL     -0.315391
     70 C22        -1.1710    5.6820   -0.2200 c3        1 MOL     -0.052504
     71 C23        -2.3500    4.6880   -0.0880 c         1 MOL      0.371340
     72 O13        -3.0810    4.7120    0.8670 o         1 MOL     -0.525483
     73 C24        -1.8710    6.9500   -0.8160 c3        1 MOL      0.107746
     74 C25        -1.1090    8.2640   -0.6230 c3        1 MOL     -0.360146
     75 O14        -1.9420    6.8370   -2.2760 oh        1 MOL     -0.594130
     76 H29         0.2440    6.0790   -1.6260 hn        1 MOL      0.284632
     77 H30        -0.7070    5.8690    0.7390 h1        1 MOL      0.111279
     78 H31        -2.9200    7.0290   -0.5460 h1        1 MOL      0.131603
     79 H32        -2.7620    7.2590   -2.5640 ho        1 MOL      0.418077
     80 H33        -0.7680    8.5640    0.3740 hc        1 MOL      0.105534
     81 H34        -0.1840    8.2200   -1.1930 hc        1 MOL      0.105534
     82 H35        -1.6580    9.1380   -0.9650 hc        1 MOL      0.105534
     83 N9         -2.6200    3.7840   -1.0890 n         1 MOL     -0.223438
     84 C26        -3.8240    2.9110   -1.1880 c3        1 MOL      0.089398
     85 C27        -3.6110    1.6160   -0.4740 c         1 MOL      0.430882
     86 O15        -2.5330    1.0490   -0.6580 o         1 MOL     -0.529253
     87 C28        -4.3760    2.8060   -2.6280 c3        1 MOL      0.187541
     88 C29        -4.5520    4.2090   -3.2580 c3        1 MOL     -0.142544
     89 C30        -5.5590    1.9490   -2.9990 c3        1 MOL      0.063312
     90 C31        -5.7600    4.9880   -2.6980 c3        1 MOL     -0.019426
     91 H36        -1.9510    3.7700   -1.8380 hn        1 MOL      0.168068
     92 H37        -4.5650    3.4700   -0.6200 h1        1 MOL      0.117941
     93 H38        -3.5710    2.3830   -3.2230 hc        1 MOL     -0.012036
     94 H39        -4.7260    4.1230   -4.3350 hc        1 MOL      0.014857
     95 H40        -3.6870    4.8700   -3.1950 hc        1 MOL      0.014857
     96 H41        -5.3970    0.9140   -2.6870 hc        1 MOL     -0.009190
     97 H42        -6.4800    2.2750   -2.5120 hc        1 MOL     -0.009190
     98 H43        -5.6690    1.9560   -4.0860 hc        1 MOL     -0.009190
     99 H44        -5.9710    5.9570   -3.1720 hc        1 MOL     -0.015551
    100 H45        -6.6690    4.4000   -2.7930 hc        1 MOL     -0.015551
    101 H46        -5.5160    5.2160   -1.6580 hc        1 MOL     -0.015551
    102 N10        -4.5230    1.0640    0.3390 n         1 MOL     -0.380232
    103 C32        -5.9640    1.4730    0.5420 c3        1 MOL     -0.029259
    104 C33        -6.8970    0.2820    0.5810 c         1 MOL      0.591801
    105 O16        -6.5320   -0.8050    0.8640 o         1 MOL     -0.437826
    106 C34        -6.2180    2.2060    1.9160 c3        1 MOL     -0.333824
    107 C35        -5.7730    1.3250    3.0700 c         1 MOL      0.716127
    108 O17        -6.6020    0.7870    3.8570 o         1 MOL     -0.709515
    109 O18        -4.5650    1.0630    3.3070 o         1 MOL     -0.709515
    110 H47        -4.2730    0.2720    0.9110 hn        1 MOL      0.317013
    111 H48        -6.2650    2.2710   -0.1370 h1        1 MOL      0.036001
    112 H49        -7.2530    2.4980    2.0590 hc        1 MOL      0.064998
    113 H50        -5.7790    3.2010    1.8540 hc        1 MOL      0.064998
    114 N11        -8.1540    0.6090    0.3420 n         1 MOL     -0.532047
    115 C36        -9.4340   -0.1090    0.5000 c3        1 MOL      0.117832
    116 C37       -10.1340   -0.5050   -0.7960 c         1 MOL      0.306605
    117 O19       -10.2960    0.3920   -1.6100 o         1 MOL     -0.500371
    118 C38       -10.4200    0.5650    1.4470 c3        1 MOL      0.056391
    119 C39       -11.8400    0.0510    1.7800 ca        1 MOL      0.089618
    120 C40       -12.9440    0.4980    1.0540 ca        1 MOL     -0.166154
    121 C41       -12.0330   -0.9220    2.7690 ca        1 MOL     -0.166154
    122 C42       -14.2160    0.0050    1.3570 ca        1 MOL     -0.102480
    123 C43       -13.2920   -1.4130    3.1510 ca        1 MOL     -0.102480
    124 C44       -14.3930   -0.8820    2.4500 ca        1 MOL     -0.146758
    125 H51        -8.2340    1.5900    0.0890 hn        1 MOL      0.308499
    126 H52        -9.1590   -0.9540    1.1270 h1        1 MOL      0.109192
    127 H53       -10.5730    1.5750    1.0820 hc        1 MOL     -0.000922
    128 H54       -10.0320    0.8300    2.4280 hc        1 MOL     -0.000922
    129 H55       -12.8150    1.2260    0.2660 ha        1 MOL      0.119634
    130 H56       -11.1390   -1.2720    3.2580 ha        1 MOL      0.119634
    131 H57       -15.0780    0.2630    0.7590 ha        1 MOL      0.106064
    132 H58       -13.3620   -2.2610    3.8160 ha        1 MOL      0.106064
    133 H59       -15.3800   -1.2100    2.7500 ha        1 MOL      0.092776
    134 N12       -10.6600   -1.7460   -0.9730 n         1 MOL     -0.067079
    135 C45       -10.5350   -2.8750   -0.0600 c3        1 MOL      0.237110
    136 C46        -9.1120   -3.3590    0.1550 c         1 MOL      0.110337
    137 O20        -8.7860   -3.7880    1.2580 o         1 MOL     -0.486859
    138 C47       -11.3360   -3.9860   -0.6600 c3        1 MOL      0.010558
    139 C48       -12.3560   -3.3120   -1.5200 c3        1 MOL     -0.034711
    140 C49       -11.5940   -2.0820   -2.0150 c3        1 MOL     -0.169497
    141 H60       -10.9580   -2.5370    0.8900 h1        1 MOL      0.005220
    142 H61       -10.6750   -4.6050   -1.2560 hc        1 MOL      0.005595
    143 H62       -11.8610   -4.5360    0.1210 hc        1 MOL      0.005595
    144 H63       -12.7340   -3.9570   -2.3140 hc        1 MOL      0.024966
    145 H64       -13.1730   -2.9620   -0.8880 hc        1 MOL      0.024966
    146 H65       -11.0020   -2.3630   -2.8950 h1        1 MOL      0.077038
    147 H66       -12.2000   -1.2500   -2.3550 h1        1 MOL      0.077038
    148 N13        -8.3010   -3.4820   -0.9340 n         1 MOL     -0.038180
    149 C50        -6.9820   -4.1220   -0.9300 c3        1 MOL      0.059178
    150 C51        -7.2010   -5.6210   -1.0390 c         1 MOL      0.344840
    151 O21        -7.5060   -6.2020   -2.0870 o         1 MOL     -0.558683
    152 C52        -6.1790   -3.6950   -2.1950 c3        1 MOL      0.171874
    153 C53        -5.8110   -2.2070   -2.0790 c3        1 MOL     -0.118569
    154 C54        -4.9960   -1.8630   -3.2690 c         1 MOL      0.751058
    155 O22        -5.5410   -1.5670   -4.3420 o         1 MOL     -0.755425
    156 O23        -3.7520   -1.8350   -3.1570 o         1 MOL     -0.755425
    157 H67        -8.6980   -3.2350   -1.8310 hn        1 MOL      0.210378
    158 H68        -6.4030   -3.8680   -0.0460 h1        1 MOL      0.119462
    159 H69        -6.9390   -3.7180   -2.9790 hc        1 MOL     -0.044506
    160 H70        -5.3930   -4.3940   -2.4640 hc        1 MOL     -0.044506
    161 H71        -5.2380   -2.0040   -1.1770 hc        1 MOL     -0.050457
    162 H72        -6.7500   -1.6560   -2.0180 hc        1 MOL     -0.050457
    163 N14        -7.0170   -6.4630    0.0280 n         1 MOL     -0.299285
    164 C55        -6.5680   -6.0100    1.3780 c3        1 MOL     -0.139288
    165 H73        -6.1160   -5.0220    1.2970 h1        1 MOL      0.075472
    166 H74        -7.4250   -5.9620    2.0500 h1        1 MOL      0.075472
    167 H75        -5.8350   -6.7130    1.7740 h1        1 MOL      0.075472
    168 H76        -7.2860   -7.4240   -0.1720 hn        1 MOL      0.251922
    169 Ca1         7.3770   -1.1620    1.1330 Ca        1 MOL      1.785395
    170 O24         4.9520   -0.8430   -0.1180 oh        1 MOL     -0.851158
    171 H77         4.1620   -0.4260    0.2240 ho        1 MOL      0.409110
    172 H78         4.9040   -0.7410   -1.0620 ho        1 MOL      0.409110
    173 O25         7.0660   -3.1320   -0.8170 oh        1 MOL     -0.851158
    174 H79         6.4580   -2.6600   -1.3910 ho        1 MOL      0.409110
    175 H80         7.6430   -3.6070   -1.4170 ho        1 MOL      0.409110
    176 O26         7.9030   -0.3780    3.6340 oh        1 MOL     -0.851158
    177 H81         8.7970   -0.5450    3.9130 ho        1 MOL      0.409110
    178 H82         7.5470    0.2030    4.3030 ho        1 MOL      0.409110
    179 O27         5.4350   -2.3470    2.7230 oh        1 MOL     -0.851158
    180 H83         4.5500   -1.9810    2.7770 ho        1 MOL      0.409110
    181 H84         5.4260   -3.0860    3.3290 ho        1 MOL      0.409110
@<TRIPOS>BOND
     1    1    2 1   
     2    1    4 1   
     3    1    5 1   
     4    1    6 1   
     5    2    3 2   
     6    2    7 1   
     7    7    8 1   
     8    7   15 1   
     9    8    9 1   
    10    8   11 1   
    11    8   16 1   
    12    9   10 2   
    13    9   19 1   
    14   11   12 1   
    15   11   17 1   
    16   11   18 1   
    17   12   13 1   
    18   12   14 1   
    19   19   20 1   
    20   19   24 1   
    21   20   21 1   
    22   20   23 1   
    23   20   25 1   
    24   21   22 2   
    25   21   29 1   
    26   23   26 1   
    27   23   27 1   
    28   23   28 1   
    29   29   30 1   
    30   29   37 1   
    31   30   31 1   
    32   30   33 1   
    33   30   38 1   
    34   31   32 2   
    35   31   41 1   
    36   33   34 1   
    37   33   39 1   
    38   33   40 1   
    39   34   35 1   
    40   34   36 1   
    41   41   42 1   
    42   41   45 1   
    43   42   43 1   
    44   42   46 1   
    45   42   47 1   
    46   43   44 2   
    47   43   48 1   
    48   48   49 1   
    49   48   56 1   
    50   49   50 1   
    51   49   52 1   
    52   49   57 1   
    53   50   51 2   
    54   50   62 1   
    55   52   53 1   
    56   52   58 1   
    57   52   59 1   
    58   53   54 1   
    59   53   55 2   
    60   54   60 1   
    61   54   61 1   
    62   62   63 1   
    63   62   66 1   
    64   63   64 1   
    65   63   67 1   
    66   63   68 1   
    67   64   65 2   
    68   64   69 1   
    69   69   70 1   
    70   69   76 1   
    71   70   71 1   
    72   70   73 1   
    73   70   77 1   
    74   71   72 2   
    75   71   83 1   
    76   73   74 1   
    77   73   75 1   
    78   73   78 1   
    79   74   80 1   
    80   74   81 1   
    81   74   82 1   
    82   75   79 1   
    83   83   84 1   
    84   83   91 1   
    85   84   85 1   
    86   84   87 1   
    87   84   92 1   
    88   85   86 2   
    89   85  102 1   
    90   87   88 1   
    91   87   89 1   
    92   87   93 1   
    93   88   90 1   
    94   88   94 1   
    95   88   95 1   
    96   89   96 1   
    97   89   97 1   
    98   89   98 1   
    99   90   99 1   
   100   90  100 1   
   101   90  101 1   
   102  102  103 1   
   103  102  110 1   
   104  103  104 1   
   105  103  106 1   
   106  103  111 1   
   107  104  105 2   
   108  104  114 1   
   109  106  107 1   
   110  106  112 1   
   111  106  113 1   
   112  107  108 1   
   113  107  109 1   
   114  114  115 1   
   115  114  125 1   
   116  115  116 1   
   117  115  118 1   
   118  115  126 1   
   119  116  117 2   
   120  116  134 1   
   121  118  119 1   
   122  118  127 1   
   123  118  128 1   
   124  119  120 ar  
   125  119  121 ar  
   126  120  122 ar  
   127  120  129 1   
   128  121  123 ar  
   129  121  130 1   
   130  122  124 ar  
   131  122  131 1   
   132  123  124 ar  
   133  123  132 1   
   134  124  133 1   
   135  134  135 1   
   136  134  140 1   
   137  135  136 1   
   138  135  138 1   
   139  135  141 1   
   140  136  137 2   
   141  136  148 1   
   142  138  139 1   
   143  138  142 1   
   144  138  143 1   
   145  139  140 1   
   146  139  144 1   
   147  139  145 1   
   148  140  146 1   
   149  140  147 1   
   150  148  149 1   
   151  148  157 1   
   152  149  150 1   
   153  149  152 1   
   154  149  158 1   
   155  150  151 2   
   156  150  163 1   
   157  152  153 1   
   158  152  159 1   
   159  152  160 1   
   160  153  154 1   
   161  153  161 1   
   162  153  162 1   
   163  154  155 1   
   164  154  156 1   
   165  163  164 1   
   166  163  168 1   
   167  164  165 1   
   168  164  166 1   
   169  164  167 1   
   170  170  171 1   
   171  170  172 1   
   172  173  174 1   
   173  173  175 1   
   174  176  177 1   
   175  176  178 1   
   176  179  180 1   
   177  179  181 1   
@<TRIPOS>SUBSTRUCTURE
     1 MOL         1 TEMP              0 ****  ****    0 ROOT
