@<TRIPOS>MOLECULE
MOL
  201   193     1     0     0
SMALL
resp


@<TRIPOS>ATOM
      1 C1          2.0910    4.4460    2.3460 c3        1 MOL     -0.485435
      2 C2          1.0300    4.3930    1.1760 c         1 MOL      0.677166
      3 O1          0.7340    3.3380    0.6470 o         1 MOL     -0.610639
      4 H1          2.8900    3.7320    2.1430 hc        1 MOL      0.131022
      5 H2          2.5090    5.4500    2.4120 hc        1 MOL      0.131022
      6 H3          1.6060    4.1900    3.2880 hc        1 MOL      0.131022
      7 N1          0.6360    5.6040    0.6870 n         1 MOL     -0.488611
      8 C3         -0.4310    5.9040   -0.3300 c3        1 MOL      0.037236
      9 C4         -1.8330    5.2610   -0.0720 c         1 MOL      0.814314
     10 O2         -2.4970    4.8240   -1.0220 o         1 MOL     -0.613131
     11 C5          0.0990    5.6820   -1.7610 c3        1 MOL     -0.247391
     12 C6          1.3240    6.3860   -2.2430 c         1 MOL      0.744152
     13 O3          1.8700    5.9390   -3.2980 o         1 MOL     -0.713374
     14 O4          1.7950    7.3960   -1.7190 o         1 MOL     -0.713374
     15 H4          0.9310    6.4120    1.2170 hn        1 MOL      0.285734
     16 H5         -0.6090    6.9720   -0.2120 h1        1 MOL      0.032886
     17 H6         -0.6820    5.9560   -2.4590 hc        1 MOL      0.076870
     18 H7          0.3160    4.6160   -1.8310 hc        1 MOL      0.076870
     19 N2         -2.2790    5.0710    1.1810 n         1 MOL     -0.552268
     20 C7         -3.6740    4.6840    1.6080 c3        1 MOL     -0.112258
     21 C8         -4.6390    5.7530    1.0430 c         1 MOL      0.389199
     22 O5         -4.2410    6.9110    0.9540 o         1 MOL     -0.559136
     23 C9         -3.8630    4.5780    3.1280 c3        1 MOL      0.064703
     24 C10        -3.4900    5.7830    3.9630 c3        1 MOL      0.099764
     25 C11        -2.9800    3.3580    3.4710 c3        1 MOL     -0.264460
     26 C12        -3.9530    5.7180    5.4130 c3        1 MOL     -0.194914
     27 H8         -1.6050    5.3660    1.8720 hn        1 MOL      0.241040
     28 H9         -3.9850    3.7510    1.1330 h1        1 MOL      0.175538
     29 H10        -4.8780    4.2910    3.4120 hc        1 MOL      0.074506
     30 H11        -3.9060    6.7010    3.5440 hc        1 MOL      0.004387
     31 H12        -2.4020    5.8990    3.9350 hc        1 MOL      0.004387
     32 H13        -2.9100    3.2220    4.5500 hc        1 MOL      0.059709
     33 H14        -3.4270    2.4370    3.0870 hc        1 MOL      0.059709
     34 H15        -1.9770    3.3750    3.0450 hc        1 MOL      0.059709
     35 H16        -3.5450    6.4700    6.0860 hc        1 MOL      0.035726
     36 H17        -5.0340    5.8300    5.4720 hc        1 MOL      0.035726
     37 H18        -3.7550    4.7370    5.8500 hc        1 MOL      0.035726
     38 N3         -5.8750    5.4750    0.6450 n         1 MOL     -0.301252
     39 C13        -6.4690    4.1360    0.6820 c3        1 MOL      0.041443
     40 C14        -5.8320    3.1240   -0.2950 c         1 MOL      0.353252
     41 O6         -5.7040    1.9950    0.1580 o         1 MOL     -0.565623
     42 C15        -7.9880    4.1120    0.5110 c3        1 MOL     -0.266119
     43 C16        -8.5690    4.9530   -0.6640 c         1 MOL      0.691089
     44 O7         -7.7690    5.3590   -1.5490 o         1 MOL     -0.696691
     45 O8         -9.8030    5.0610   -0.7230 o         1 MOL     -0.696691
     46 H19        -6.3740    6.1980    0.1500 hn        1 MOL      0.257423
     47 H20        -6.4150    3.7770    1.7150 h1        1 MOL      0.045225
     48 H21        -8.4010    4.4390    1.4620 hc        1 MOL      0.066666
     49 H22        -8.2050    3.0490    0.4420 hc        1 MOL      0.066666
     50 N4         -5.4730    3.5430   -1.5330 n         1 MOL      0.018667
     51 C17        -5.1110    2.6630   -2.6590 c3        1 MOL     -0.144547
     52 C18        -6.0110    1.4710   -2.8030 c         1 MOL      0.572103
     53 O9         -7.2230    1.6080   -2.7700 o         1 MOL     -0.510394
     54 H23        -5.7960    4.4780   -1.7120 hn        1 MOL      0.190937
     55 H24        -4.1040    2.3380   -2.4320 h1        1 MOL      0.061489
     56 H25        -5.0460    3.2750   -3.5560 h1        1 MOL      0.061489
     57 N5         -5.3910    0.2830   -3.0440 n         1 MOL     -0.536083
     58 C19        -6.1410   -0.9850   -3.3300 c3        1 MOL      0.205134
     59 C20        -6.8480   -1.4760   -2.0620 c         1 MOL      0.251787
     60 O10        -7.6990   -2.3410   -2.1030 o         1 MOL     -0.513623
     61 C21        -5.2220   -2.0100   -3.8990 c3        1 MOL     -0.429841
     62 C22        -3.8170   -2.2650   -3.2190 c         1 MOL      0.763869
     63 O11        -2.7840   -2.6000   -3.8420 o         1 MOL     -0.700273
     64 O12        -3.8160   -2.1340   -1.9880 o         1 MOL     -0.700273
     65 H26        -4.3790    0.2230   -3.0870 hn        1 MOL      0.314540
     66 H27        -6.9300   -0.8460   -4.0720 h1        1 MOL      0.070276
     67 H28        -5.1530   -1.9060   -4.9820 hc        1 MOL      0.088060
     68 H29        -5.7070   -2.9880   -3.8370 hc        1 MOL      0.088060
     69 N6         -6.4140   -0.9390   -0.8760 n         1 MOL     -0.005275
     70 C23        -6.8770   -1.5010    0.4320 c3        1 MOL     -0.459825
     71 C24        -6.5470   -2.9970    0.5790 c         1 MOL      0.626041
     72 O13        -7.0280   -3.5950    1.4850 o         1 MOL     -0.634926
     73 H30        -5.7200   -0.2080   -0.9170 hn        1 MOL      0.198233
     74 H31        -7.9580   -1.3560    0.4320 h1        1 MOL      0.173584
     75 H32        -6.3470   -0.9410    1.2000 h1        1 MOL      0.173584
     76 N7         -5.6370   -3.5770   -0.2260 n         1 MOL      0.045436
     77 C25        -5.1190   -4.9620   -0.2650 c3        1 MOL     -0.098695
     78 C26        -4.4570   -5.4310    1.0680 c         1 MOL      0.535371
     79 O14        -4.4470   -6.6380    1.3250 o         1 MOL     -0.517773
     80 C27        -6.0980   -5.9690   -0.8630 c3        1 MOL      0.151506
     81 C28        -6.9290   -5.4600   -2.1020 c3        1 MOL     -0.146655
     82 C29        -7.4140   -6.6520   -2.9140 c         1 MOL      0.617844
     83 N8         -8.1310   -6.3260   -3.9820 n         1 MOL     -0.782032
     84 O15        -7.1840   -7.8080   -2.6890 o         1 MOL     -0.569328
     85 H33        -5.1150   -3.0050   -0.8680 hn        1 MOL      0.017692
     86 H34        -4.3080   -4.8130   -0.9710 h1        1 MOL      0.104145
     87 H35        -6.7100   -6.4050   -0.0730 hc        1 MOL     -0.027895
     88 H36        -5.4240   -6.8070   -1.0820 hc        1 MOL     -0.027895
     89 H37        -6.3030   -4.8240   -2.7210 hc        1 MOL      0.067834
     90 H38        -7.7570   -4.8660   -1.7240 hc        1 MOL      0.067834
     91 H39        -8.4860   -5.3990   -4.1650 hn        1 MOL      0.339587
     92 H40        -8.3380   -7.1510   -4.5340 hn        1 MOL      0.339587
     93 N9         -3.9440   -4.5150    1.9080 n         1 MOL     -0.395879
     94 C30        -3.3220   -4.6810    3.2040 c3        1 MOL     -0.023640
     95 C31        -1.7960   -4.5270    3.2860 c         1 MOL      0.477783
     96 O16        -1.1010   -5.1550    4.1460 o         1 MOL     -0.568196
     97 C32        -3.9590   -3.7500    4.2520 c3        1 MOL      0.450572
     98 C33        -3.8180   -2.2500    4.0000 c3        1 MOL     -0.511594
     99 C34        -5.4390   -4.0980    4.5980 c3        1 MOL     -0.511594
    100 H41        -4.0110   -3.5810    1.5250 hn        1 MOL      0.160530
    101 H42        -3.5710   -5.6940    3.4970 h1        1 MOL      0.061044
    102 H43        -3.4100   -3.9130    5.1770 hc        1 MOL     -0.065952
    103 H44        -4.0860   -1.7760    4.9440 hc        1 MOL      0.120314
    104 H45        -2.8120   -1.9560    3.7250 hc        1 MOL      0.120314
    105 H46        -4.5580   -2.0590    3.2240 hc        1 MOL      0.120314
    106 H47        -5.8270   -3.5360    5.4460 hc        1 MOL      0.120314
    107 H48        -6.1740   -3.7490    3.8700 hc        1 MOL      0.120314
    108 H49        -5.5130   -5.1770    4.5730 hc        1 MOL      0.120314
    109 N10        -1.3280   -3.6170    2.4970 n         1 MOL     -0.343635
    110 C35         0.0850   -3.3420    2.2840 c3        1 MOL      0.111404
    111 C36         0.4860   -3.7940    0.9040 c         1 MOL      0.685420
    112 O17        -0.3410   -4.1620    0.1010 o         1 MOL     -0.571173
    113 C37         0.4090   -1.8350    2.4060 c3        1 MOL     -0.276947
    114 C38        -0.0800   -1.3330    3.7500 c         1 MOL      0.748592
    115 N11        -0.7480   -0.2500    3.8160 n         1 MOL     -0.818444
    116 O18         0.3770   -1.8540    4.7790 o         1 MOL     -0.591594
    117 H50        -1.9810   -3.1560    1.8710 hn        1 MOL      0.269800
    118 H51         0.7000   -3.8450    3.0290 h1        1 MOL      0.065224
    119 H52        -0.1480   -1.2000    1.7130 hc        1 MOL      0.071158
    120 H53         1.4740   -1.6560    2.2280 hc        1 MOL      0.071158
    121 H54        -0.9760    0.2060    2.9420 hn        1 MOL      0.368685
    122 H55        -0.9950    0.1880    4.6930 hn        1 MOL      0.368685
    123 N12         1.7460   -3.9190    0.6730 n         1 MOL     -0.560586
    124 C39         2.4970   -4.3270   -0.5440 c3        1 MOL      0.171088
    125 C40         4.0470   -4.2710   -0.2980 c         1 MOL      0.526166
    126 O19         4.4970   -3.6130    0.6470 o         1 MOL     -0.501343
    127 C41         2.1170   -3.4460   -1.7490 c3        1 MOL     -0.443359
    128 C42         2.1300   -1.9390   -1.5110 ca        1 MOL      0.279207
    129 C43         1.0390   -1.2880   -0.8860 ca        1 MOL     -0.261277
    130 C44         3.3490   -1.2800   -1.7630 ca        1 MOL     -0.261277
    131 C45         1.1400    0.1420   -0.6960 ca        1 MOL     -0.159940
    132 C46         3.3600    0.1270   -1.6920 ca        1 MOL     -0.159940
    133 C47         2.2530    0.8250   -1.1390 ca        1 MOL      0.165671
    134 O20         2.2050    2.1910   -1.2000 oh        1 MOL     -0.436322
    135 H56         2.3470   -3.7140    1.4580 hn        1 MOL      0.274470
    136 H57         2.2500   -5.3660   -0.7740 h1        1 MOL      0.078235
    137 H58         1.0720   -3.6140   -2.0020 hc        1 MOL      0.145937
    138 H59         2.8300   -3.5950   -2.5500 hc        1 MOL      0.145937
    139 H60         0.0720   -1.7360   -0.6950 ha        1 MOL      0.171159
    140 H61         4.1950   -1.8270   -2.1570 ha        1 MOL      0.171159
    141 H62         0.3770    0.7210   -0.2060 ha        1 MOL      0.151204
    142 H63         4.2300    0.7140   -1.9140 ha        1 MOL      0.151204
    143 H64         1.5070    2.5650   -0.6630 ho        1 MOL      0.402360
    144 N13         4.8220   -5.0150   -1.0720 n         1 MOL     -0.604249
    145 C48         6.3000   -5.2040   -0.8660 c3        1 MOL      0.299177
    146 C49         7.1270   -4.4330   -1.9130 c         1 MOL      0.618229
    147 O21         7.3350   -4.9830   -2.9960 o         1 MOL     -0.572331
    148 C50         6.5510   -6.6660   -0.7330 c3        1 MOL     -0.145266
    149 C51         7.9950   -6.7960   -0.1970 c3        1 MOL     -0.211202
    150 C52         8.2250   -8.3100    0.2030 c         1 MOL      0.689178
    151 O22         7.7700   -8.7310    1.3570 o         1 MOL     -0.674247
    152 O23         8.8760   -9.0830   -0.5510 o         1 MOL     -0.674247
    153 H65         4.4030   -5.3680   -1.9260 hn        1 MOL      0.321194
    154 H66         6.5160   -4.8290    0.1420 h1        1 MOL      0.034322
    155 H67         6.3460   -7.2410   -1.6260 hc        1 MOL      0.061820
    156 H68         5.8610   -7.0450    0.0160 hc        1 MOL      0.061820
    157 H69         8.1180   -6.1650    0.6860 hc        1 MOL      0.041209
    158 H70         8.7490   -6.4590   -0.8950 hc        1 MOL      0.041209
    159 N14         7.5290   -3.1350   -1.7170 n         1 MOL     -0.638950
    160 C53         7.1270   -2.1880   -0.6920 c3        1 MOL      0.046686
    161 C54         7.7460   -2.4710    0.6980 c         1 MOL      0.449019
    162 O24         8.9860   -2.5290    0.7600 o         1 MOL     -0.553198
    163 C55         7.3550   -0.7030   -1.2530 c3        1 MOL      0.086667
    164 C56         7.0970    0.4010   -0.2660 c3        1 MOL     -0.270556
    165 C57         7.3940    1.7990   -0.8520 c         1 MOL      0.710468
    166 O25         8.4000    2.1420   -1.4460 o         1 MOL     -0.686786
    167 O26         6.5080    2.6650   -0.7790 o         1 MOL     -0.686786
    168 H71         8.2460   -2.8540   -2.3780 hn        1 MOL      0.334651
    169 H72         6.0450   -2.3120   -0.6410 h1        1 MOL     -0.004593
    170 H73         6.6200   -0.5800   -2.0530 hc        1 MOL      0.024276
    171 H74         8.3200   -0.5230   -1.7240 hc        1 MOL      0.024276
    172 H75         7.7740    0.4200    0.5970 hc        1 MOL      0.039029
    173 H76         6.0800    0.4200    0.0960 hc        1 MOL      0.039029
    174 N15         6.9100   -2.4850    1.7220 n         1 MOL     -0.114645
    175 C58         7.2200   -2.4160    3.1740 c3        1 MOL     -0.228295
    176 H77         7.9800   -3.1580    3.4180 h1        1 MOL      0.093868
    177 H78         7.5930   -1.4210    3.4190 h1        1 MOL      0.093868
    178 H79         6.3160   -2.6170    3.7490 h1        1 MOL      0.093868
    179 H80         5.9450   -2.5470    1.4370 hn        1 MOL      0.185774
    180 Ca1         6.5440    5.2510   -0.2720 Ca        1 MOL      1.843375
    181 O27         4.6120    7.5690   -0.8440 oh        1 MOL     -0.883098
    182 H81         5.0070    8.3780   -1.1440 ho        1 MOL      0.410936
    183 H82         3.6860    7.6630   -1.0460 ho        1 MOL      0.410936
    184 O28         4.0650    4.4270   -1.1960 oh        1 MOL     -0.883098
    185 H83         3.3210    3.8300   -1.1460 ho        1 MOL      0.410936
    186 H84         3.8350    5.0520   -1.8790 ho        1 MOL      0.410936
    187 O29         7.7960    7.4140   -1.2260 oh        1 MOL     -0.883098
    188 H85         8.6380    7.8080   -1.0280 ho        1 MOL      0.410936
    189 H86         7.3510    8.0630   -1.7810 ho        1 MOL      0.410936
    190 O30         6.3850    3.5690    1.7280 oh        1 MOL     -0.883098
    191 H87         7.1940    3.1420    1.4560 ho        1 MOL      0.410936
    192 H88         6.2120    3.2180    2.5940 ho        1 MOL      0.410936
    193 O31         6.4670    5.5010   -2.9030 oh        1 MOL     -0.883098
    194 H89         7.1240    5.9840   -3.4000 ho        1 MOL      0.410936
    195 H90         5.7540    5.3600   -3.5320 ho        1 MOL      0.410936
    196 O32         9.1380    4.2160    0.1580 oh        1 MOL     -0.883098
    197 H91         9.8270    4.3550    0.8110 ho        1 MOL      0.410936
    198 H92         9.5400    3.6570   -0.5060 ho        1 MOL      0.410936
    199 O33         7.4860    6.8870    1.6940 oh        1 MOL     -0.883098
    200 H93         8.4370    6.8050    1.7650 ho        1 MOL      0.410936
    201 H94         7.2480    7.4890    2.3910 ho        1 MOL      0.410936
@<TRIPOS>BOND
     1    1    2 1   
     2    1    4 1   
     3    1    5 1   
     4    1    6 1   
     5    2    3 2   
     6    2    7 1   
     7    7    8 1   
     8    7   15 1   
     9    8    9 1   
    10    8   11 1   
    11    8   16 1   
    12    9   10 2   
    13    9   19 1   
    14   11   12 1   
    15   11   17 1   
    16   11   18 1   
    17   12   13 1   
    18   12   14 1   
    19   19   20 1   
    20   19   27 1   
    21   20   21 1   
    22   20   23 1   
    23   20   28 1   
    24   21   22 2   
    25   21   38 1   
    26   23   24 1   
    27   23   25 1   
    28   23   29 1   
    29   24   26 1   
    30   24   30 1   
    31   24   31 1   
    32   25   32 1   
    33   25   33 1   
    34   25   34 1   
    35   26   35 1   
    36   26   36 1   
    37   26   37 1   
    38   38   39 1   
    39   38   46 1   
    40   39   40 1   
    41   39   42 1   
    42   39   47 1   
    43   40   41 2   
    44   40   50 1   
    45   42   43 1   
    46   42   48 1   
    47   42   49 1   
    48   43   44 1   
    49   43   45 1   
    50   50   51 1   
    51   50   54 1   
    52   51   52 1   
    53   51   55 1   
    54   51   56 1   
    55   52   53 2   
    56   52   57 1   
    57   57   58 1   
    58   57   65 1   
    59   58   59 1   
    60   58   61 1   
    61   58   66 1   
    62   59   60 2   
    63   59   69 1   
    64   61   62 1   
    65   61   67 1   
    66   61   68 1   
    67   62   63 1   
    68   62   64 1   
    69   69   70 1   
    70   69   73 1   
    71   70   71 1   
    72   70   74 1   
    73   70   75 1   
    74   71   72 2   
    75   71   76 1   
    76   76   77 1   
    77   76   85 1   
    78   77   78 1   
    79   77   80 1   
    80   77   86 1   
    81   78   79 2   
    82   78   93 1   
    83   80   81 1   
    84   80   87 1   
    85   80   88 1   
    86   81   82 1   
    87   81   89 1   
    88   81   90 1   
    89   82   83 1   
    90   82   84 2   
    91   83   91 1   
    92   83   92 1   
    93   93   94 1   
    94   93  100 1   
    95   94   95 1   
    96   94   97 1   
    97   94  101 1   
    98   95   96 2   
    99   95  109 1   
   100   97   98 1   
   101   97   99 1   
   102   97  102 1   
   103   98  103 1   
   104   98  104 1   
   105   98  105 1   
   106   99  106 1   
   107   99  107 1   
   108   99  108 1   
   109  109  110 1   
   110  109  117 1   
   111  110  111 1   
   112  110  113 1   
   113  110  118 1   
   114  111  112 2   
   115  111  123 1   
   116  113  114 1   
   117  113  119 1   
   118  113  120 1   
   119  114  115 1   
   120  114  116 2   
   121  115  121 1   
   122  115  122 1   
   123  123  124 1   
   124  123  135 1   
   125  124  125 1   
   126  124  127 1   
   127  124  136 1   
   128  125  126 2   
   129  125  144 1   
   130  127  128 1   
   131  127  137 1   
   132  127  138 1   
   133  128  129 ar  
   134  128  130 ar  
   135  129  131 ar  
   136  129  139 1   
   137  130  132 ar  
   138  130  140 1   
   139  131  133 ar  
   140  131  141 1   
   141  132  133 ar  
   142  132  142 1   
   143  133  134 1   
   144  134  143 1   
   145  144  145 1   
   146  144  153 1   
   147  145  146 1   
   148  145  148 1   
   149  145  154 1   
   150  146  147 2   
   151  146  159 1   
   152  148  149 1   
   153  148  155 1   
   154  148  156 1   
   155  149  150 1   
   156  149  157 1   
   157  149  158 1   
   158  150  151 1   
   159  150  152 1   
   160  159  160 1   
   161  159  168 1   
   162  160  161 1   
   163  160  163 1   
   164  160  169 1   
   165  161  162 2   
   166  161  174 1   
   167  163  164 1   
   168  163  170 1   
   169  163  171 1   
   170  164  165 1   
   171  164  172 1   
   172  164  173 1   
   173  165  166 1   
   174  165  167 1   
   175  174  175 1   
   176  174  179 1   
   177  175  176 1   
   178  175  177 1   
   179  175  178 1   
   180  181  182 1   
   181  181  183 1   
   182  184  185 1   
   183  184  186 1   
   184  187  188 1   
   185  187  189 1   
   186  190  191 1   
   187  190  192 1   
   188  193  194 1   
   189  193  195 1   
   190  196  197 1   
   191  196  198 1   
   192  199  200 1   
   193  199  201 1   
@<TRIPOS>SUBSTRUCTURE
     1 MOL         1 TEMP              0 ****  ****    0 ROOT
