@<TRIPOS>MOLECULE
MOL
  185   180     1     0     0
SMALL
resp


@<TRIPOS>ATOM
      1 C1          5.5440    0.4190    4.7930 c3        1 MOL     -0.353712
      2 C2          6.2490    0.0400    3.4900 c         1 MOL      0.718042
      3 O1          5.8110   -0.8040    2.8340 o         1 MOL     -0.514461
      4 H1          5.0540    1.3860    4.6720 hc        1 MOL      0.087614
      5 H2          4.7980   -0.3370    5.0360 hc        1 MOL      0.087614
      6 H3          6.2760    0.4810    5.5980 hc        1 MOL      0.087614
      7 N1          7.4500    0.7110    3.3110 n         1 MOL     -0.648685
      8 C3          8.4580    0.4330    2.2550 c3        1 MOL      0.216441
      9 C4          7.7740    0.0180    0.9960 c         1 MOL      0.468778
     10 O2          6.9670    0.7530    0.4500 o         1 MOL     -0.439304
     11 C5          9.2120    1.7110    2.0060 c3        1 MOL     -0.239811
     12 C6          8.5360    2.9300    1.4290 c         1 MOL      0.764706
     13 O3          8.9320    3.3840    0.2720 o         1 MOL     -0.699633
     14 O4          7.7040    3.5360    2.1430 o         1 MOL     -0.699633
     15 H4          7.6320    1.4920    3.9300 hn        1 MOL      0.330891
     16 H5          9.1380   -0.3790    2.5270 h1        1 MOL     -0.017062
     17 H6         10.0550    1.4440    1.3660 hc        1 MOL      0.031784
     18 H7          9.6680    2.1000    2.9180 hc        1 MOL      0.031784
     19 N2          8.1920   -1.1060    0.4550 n         1 MOL     -0.512162
     20 C7          7.7790   -1.6060   -0.8420 c3        1 MOL      0.091595
     21 C8          6.4280   -2.3610   -0.7620 c         1 MOL      0.609844
     22 O5          6.3030   -3.5100   -1.2140 o         1 MOL     -0.568798
     23 C9          8.8600   -2.5100   -1.3590 c3        1 MOL     -0.128684
     24 C10        10.2620   -1.9090   -1.4940 c3        1 MOL      0.297019
     25 C11        11.2910   -3.0150   -1.7600 c3        1 MOL     -0.096625
     26 C12        12.7220   -2.5160   -1.5370 c3        1 MOL      0.061724
     27 N3         13.0190   -1.2260   -2.1860 n4        1 MOL     -0.265454
     28 H8          8.8080   -1.7090    0.9780 hn        1 MOL      0.317867
     29 H9          7.6910   -0.8290   -1.5990 h1        1 MOL      0.072271
     30 H10         8.5950   -2.8380   -2.3600 hc        1 MOL      0.037936
     31 H11         8.8870   -3.3540   -0.6800 hc        1 MOL      0.037936
     32 H12        10.5460   -1.5260   -0.5130 hc        1 MOL     -0.083623
     33 H13        10.2750   -1.0980   -2.2100 hc        1 MOL     -0.083623
     34 H14        11.1800   -3.3460   -2.7850 hc        1 MOL      0.047233
     35 H15        11.1230   -3.8090   -1.0400 hc        1 MOL      0.047233
     36 H16        13.3630   -3.2840   -1.9630 hx        1 MOL      0.065892
     37 H17        12.9330   -2.4050   -0.4740 hx        1 MOL      0.065892
     38 H18        12.5000   -0.4340   -1.8370 hn        1 MOL      0.301761
     39 H19        14.0000   -1.0050   -2.0890 hn        1 MOL      0.301761
     40 H20        12.7960   -1.2790   -3.1750 hn        1 MOL      0.301761
     41 N4          5.4770   -1.6580   -0.2270 n         1 MOL     -0.422368
     42 C13         4.0660   -2.0130   -0.1630 c3        1 MOL     -0.305851
     43 C14         3.4840   -2.4130   -1.5770 c         1 MOL      0.737596
     44 O6          3.9050   -1.8940   -2.5500 o         1 MOL     -0.497359
     45 C15         3.3000   -0.8030    0.4400 c3        1 MOL     -0.014269
     46 C16         1.8500   -1.0940    0.6600 c         1 MOL      0.811695
     47 O7          1.0780   -1.3060   -0.2690 o         1 MOL     -0.795235
     48 O8          1.4580   -1.0370    1.8000 o         1 MOL     -0.795235
     49 H21         5.7850   -0.8260    0.2530 hn        1 MOL      0.247381
     50 H22         3.9660   -2.8310    0.5540 h1        1 MOL      0.139892
     51 H23         3.3000    0.0430   -0.2510 hc        1 MOL      0.084163
     52 H24         3.6970   -0.4210    1.3880 hc        1 MOL      0.084163
     53 N5          2.5230   -3.3570   -1.4500 n         1 MOL     -0.498545
     54 C17         1.9800   -4.0960   -2.5870 c3        1 MOL     -0.064606
     55 C18         1.1510   -3.2440   -3.5810 c         1 MOL      0.480767
     56 O9          1.1590   -3.5050   -4.8050 o         1 MOL     -0.541176
     57 H25         2.1020   -3.3930   -0.5320 hn        1 MOL      0.268798
     58 H26         1.3080   -4.8060   -2.0940 h1        1 MOL      0.091044
     59 H27         2.8110   -4.6520   -3.0100 h1        1 MOL      0.091044
     60 N6          0.6080   -2.1060   -3.0810 n         1 MOL     -0.304929
     61 C19        -0.0490   -1.0450   -3.8600 c3        1 MOL      0.263825
     62 C20         0.2970    0.3890   -3.3800 c         1 MOL      0.340178
     63 O10        -0.5060    1.3080   -3.5810 o         1 MOL     -0.521702
     64 C21        -1.6050   -1.3180   -3.8680 c3        1 MOL     -0.562989
     65 C22        -2.2900   -0.8980   -2.5400 c         1 MOL      0.805163
     66 N7         -3.3260   -0.1020   -2.5550 n         1 MOL     -0.645607
     67 O11        -1.7850   -1.1990   -1.4450 o         1 MOL     -0.803313
     68 H28         0.5850   -2.0390   -2.0800 hn        1 MOL      0.246944
     69 H29         0.3250   -1.0720   -4.8890 h1        1 MOL      0.065267
     70 H30        -1.7580   -2.3870   -3.9960 hc        1 MOL      0.161092
     71 H31        -2.0480   -0.8130   -4.7230 hc        1 MOL      0.161092
     72 H32        -3.6160    0.3150   -3.4270 hn        1 MOL      0.315771
     73 H33        -3.7290    0.0560   -1.6420 hn        1 MOL      0.315771
     74 N8          1.5010    0.5630   -2.8260 n         1 MOL     -0.048838
     75 C23         2.2120    1.7990   -2.6830 c3        1 MOL     -0.239710
     76 C24         1.4990    2.7820   -1.7690 c         1 MOL      0.559140
     77 O12         1.8050    3.9040   -1.8640 o         1 MOL     -0.515664
     78 H34         2.0230   -0.3010   -2.7590 hn        1 MOL      0.063581
     79 H35         2.4020    2.2070   -3.6700 h1        1 MOL      0.126753
     80 H36         3.1410    1.5700   -2.1710 h1        1 MOL      0.126753
     81 N9          0.6960    2.3130   -0.8770 n         1 MOL     -0.358856
     82 C25        -0.0510    3.0350    0.1570 c3        1 MOL     -0.078525
     83 C26        -1.3740    2.2870    0.4410 c         1 MOL      0.636745
     84 O13        -1.3430    1.0380    0.5510 o         1 MOL     -0.456800
     85 C27         0.8190    3.1300    1.3630 c3        1 MOL      0.183402
     86 C28         2.2340    3.8030    1.2700 ca        1 MOL     -0.041245
     87 C29         2.3680    5.1750    1.1240 ca        1 MOL     -0.225071
     88 C30         3.3280    2.8970    1.2590 ca        1 MOL     -0.225071
     89 C31         3.7050    5.6800    0.9970 ca        1 MOL     -0.176342
     90 C32         4.6450    3.4440    1.3440 ca        1 MOL     -0.176342
     91 C33         4.8140    4.8290    1.2190 ca        1 MOL      0.363526
     92 O14         6.0530    5.2710    1.2380 oh        1 MOL     -0.564991
     93 H37         0.4600    1.3640   -1.1180 hn        1 MOL      0.197491
     94 H38        -0.4120    3.9980   -0.2020 h1        1 MOL      0.058953
     95 H39         0.9290    2.1310    1.7950 hc        1 MOL     -0.059702
     96 H40         0.2440    3.6920    2.0970 hc        1 MOL     -0.059702
     97 H41         1.5010    5.7910    0.9650 ha        1 MOL      0.131929
     98 H42         3.1980    1.8230    1.2780 ha        1 MOL      0.131929
     99 H43         3.9290    6.7240    0.8180 ha        1 MOL      0.115612
    100 H44         5.5010    2.7890    1.3610 ha        1 MOL      0.115612
    101 H45         6.6200    4.5360    1.4650 ho        1 MOL      0.439716
    102 N10        -2.3770    3.0860    0.6220 n         1 MOL     -0.511942
    103 C34        -3.6430    2.4880    0.9160 c3        1 MOL      0.102422
    104 C35        -4.5170    2.2360   -0.3450 c         1 MOL      0.372126
    105 O15        -4.9830    1.1060   -0.4290 o         1 MOL     -0.381757
    106 C36        -4.2750    3.3550    2.0250 c3        1 MOL      0.056747
    107 C37        -3.3360    3.3180    3.3310 c3        1 MOL      0.048442
    108 C38        -5.7520    3.0400    2.3310 c3        1 MOL     -0.364610
    109 C39        -3.4780    1.9780    4.1270 c3        1 MOL     -0.043268
    110 H46        -2.3760    4.0920    0.7250 hn        1 MOL      0.311766
    111 H47        -3.5260    1.5020    1.3570 h1        1 MOL     -0.020161
    112 H48        -4.2500    4.3730    1.6340 hc        1 MOL     -0.012956
    113 H49        -3.6500    4.1170    4.0030 hc        1 MOL     -0.002338
    114 H50        -2.2930    3.4300    3.0520 hc        1 MOL     -0.002338
    115 H51        -6.4390    3.0850    1.4900 hc        1 MOL      0.107012
    116 H52        -5.9120    2.1320    2.9190 hc        1 MOL      0.107012
    117 H53        -6.0550    3.8170    3.0300 hc        1 MOL      0.107012
    118 H54        -4.4320    1.8580    4.6230 hc        1 MOL      0.021127
    119 H55        -3.3160    1.1700    3.4020 hc        1 MOL      0.021127
    120 H56        -2.6700    1.8940    4.8490 hc        1 MOL      0.021127
    121 N11        -4.6410    3.2050   -1.2070 n         1 MOL     -0.241355
    122 C40        -5.2630    3.1600   -2.5300 c3        1 MOL     -0.259767
    123 C41        -6.7760    2.7940   -2.5810 c         1 MOL      0.695973
    124 O16        -7.1750    2.2650   -3.5880 o         1 MOL     -0.533340
    125 C42        -4.9200    4.4290   -3.2570 c3        1 MOL      0.200352
    126 O17        -5.3670    5.5950   -2.5070 oh        1 MOL     -0.626016
    127 H57        -4.0680    4.0290   -1.0980 hn        1 MOL      0.239606
    128 H58        -4.7910    2.3050   -2.9900 h1        1 MOL      0.123515
    129 H59        -5.4350    4.4500   -4.2120 h1        1 MOL      0.058446
    130 H60        -3.8640    4.4830   -3.5380 h1        1 MOL      0.058446
    131 H61        -4.7270    6.3030   -2.5630 ho        1 MOL      0.413872
    132 N12        -7.4960    2.8710   -1.4450 n         1 MOL     -0.368096
    133 C43        -8.7610    2.1960   -1.1480 c3        1 MOL      0.140078
    134 C44        -8.7630    0.7000   -1.4120 c         1 MOL      0.581395
    135 O18        -9.6890    0.1560   -1.9990 o         1 MOL     -0.517063
    136 C45        -9.8790    2.9660   -1.7590 c3        1 MOL     -0.321922
    137 H62        -7.0620    3.3410   -0.6590 hn        1 MOL      0.214037
    138 H63        -8.8820    2.2990   -0.0770 h1        1 MOL      0.075933
    139 H64       -10.8330    2.6010   -1.3930 hc        1 MOL      0.090014
    140 H65        -9.7990    4.0070   -1.4440 hc        1 MOL      0.090014
    141 H66        -9.8420    3.0350   -2.8480 hc        1 MOL      0.090014
    142 N13        -7.7510    0.0200   -0.7630 n         1 MOL     -0.612998
    143 C46        -7.6400   -1.3950   -0.7480 c3        1 MOL      0.365652
    144 C47        -7.0760   -1.9690    0.5510 c         1 MOL      0.457365
    145 O19        -6.4220   -1.2670    1.3440 o         1 MOL     -0.472759
    146 C48        -6.7950   -1.6990   -1.9770 c3        1 MOL     -0.262286
    147 H67        -7.0660    0.6390   -0.3500 hn        1 MOL      0.175013
    148 H68        -8.5980   -1.8870   -0.9020 h1        1 MOL     -0.009576
    149 H69        -7.2880   -1.4130   -2.9000 hc        1 MOL      0.072400
    150 H70        -5.7820   -1.3110   -1.8410 hc        1 MOL      0.072400
    151 H71        -6.7640   -2.7850   -1.9500 hc        1 MOL      0.072400
    152 N14        -7.3420   -3.2560    0.7140 n         1 MOL     -0.501528
    153 C49        -6.9270   -4.0340    1.7950 c3        1 MOL     -0.115569
    154 C50        -7.5770   -3.5460    3.1640 c         1 MOL      0.431437
    155 O20        -6.8990   -3.5940    4.2210 o         1 MOL     -0.517942
    156 C51        -5.4010   -4.2080    1.7520 c3        1 MOL      0.176773
    157 C52        -4.7330   -4.5120    0.4300 c3        1 MOL     -0.124516
    158 C53        -3.1820   -4.7600    0.6070 c         1 MOL      0.637684
    159 O21        -2.3420   -3.8590    0.3620 o         1 MOL     -0.675731
    160 O22        -2.7780   -5.8400    1.0960 o         1 MOL     -0.675731
    161 H72        -7.6850   -3.7770   -0.0760 hn        1 MOL      0.343473
    162 H73        -7.3650   -5.0230    1.6880 h1        1 MOL      0.087011
    163 H74        -5.0320   -4.8850    2.5150 hc        1 MOL      0.008630
    164 H75        -5.0690   -3.2060    2.0220 hc        1 MOL      0.008630
    165 H76        -4.7100   -3.6700   -0.2610 hc        1 MOL     -0.011023
    166 H77        -5.1160   -5.4100   -0.0510 hc        1 MOL     -0.011023
    167 N15        -8.7720   -3.0730    3.1570 n         1 MOL     -0.222182
    168 C54        -9.3650   -2.2940    4.3060 c3        1 MOL     -0.272739
    169 H78        -9.3640   -2.9140    5.2030 h1        1 MOL      0.129634
    170 H79        -8.7700   -1.3980    4.4840 h1        1 MOL      0.129634
    171 H80       -10.3880   -2.0080    4.0630 h1        1 MOL      0.129634
    172 H81        -9.2660   -3.1190    2.2830 hn        1 MOL      0.222869
    173 Ca1        -1.0910   -1.7340    1.0510 Ca        1 MOL      1.803465
    174 O23         0.5950   -3.8760    1.3180 oh        1 MOL     -0.871848
    175 H82         1.3860   -4.3000    1.6360 ho        1 MOL      0.426717
    176 H83         0.1750   -4.5370    0.7590 ho        1 MOL      0.426717
    177 O24        -0.5920   -0.0260    3.2490 oh        1 MOL     -0.871848
    178 H84        -0.6100    0.6170    3.9560 ho        1 MOL      0.426717
    179 H85         0.3340   -0.1030    3.0240 ho        1 MOL      0.426717
    180 O25        -2.4250   -2.6250    3.3250 oh        1 MOL     -0.871848
    181 H86        -2.3320   -3.4550    3.7840 ho        1 MOL      0.426717
    182 H87        -2.6210   -1.9910    4.0150 ho        1 MOL      0.426717
    183 O26        -3.7160   -1.0000    0.8430 oh        1 MOL     -0.871848
    184 H88        -4.1100   -0.2650    0.3780 ho        1 MOL      0.426717
    185 H89        -4.4490   -1.4250    1.2820 ho        1 MOL      0.426717
@<TRIPOS>BOND
     1    1    2 1   
     2    1    4 1   
     3    1    5 1   
     4    1    6 1   
     5    2    3 2   
     6    2    7 1   
     7    7    8 1   
     8    7   15 1   
     9    8    9 1   
    10    8   11 1   
    11    8   16 1   
    12    9   10 2   
    13    9   19 1   
    14   11   12 1   
    15   11   17 1   
    16   11   18 1   
    17   12   13 1   
    18   12   14 1   
    19   19   20 1   
    20   19   28 1   
    21   20   21 1   
    22   20   23 1   
    23   20   29 1   
    24   21   22 2   
    25   21   41 1   
    26   23   24 1   
    27   23   30 1   
    28   23   31 1   
    29   24   25 1   
    30   24   32 1   
    31   24   33 1   
    32   25   26 1   
    33   25   34 1   
    34   25   35 1   
    35   26   27 1   
    36   26   36 1   
    37   26   37 1   
    38   27   38 1   
    39   27   39 1   
    40   27   40 1   
    41   41   42 1   
    42   41   49 1   
    43   42   43 1   
    44   42   45 1   
    45   42   50 1   
    46   43   44 2   
    47   43   53 1   
    48   45   46 1   
    49   45   51 1   
    50   45   52 1   
    51   46   47 1   
    52   46   48 1   
    53   53   54 1   
    54   53   57 1   
    55   54   55 1   
    56   54   58 1   
    57   54   59 1   
    58   55   56 2   
    59   55   60 1   
    60   60   61 1   
    61   60   68 1   
    62   61   62 1   
    63   61   64 1   
    64   61   69 1   
    65   62   63 2   
    66   62   74 1   
    67   64   65 1   
    68   64   70 1   
    69   64   71 1   
    70   65   66 1   
    71   65   67 2   
    72   66   72 1   
    73   66   73 1   
    74   74   75 1   
    75   74   78 1   
    76   75   76 1   
    77   75   79 1   
    78   75   80 1   
    79   76   77 2   
    80   76   81 1   
    81   81   82 1   
    82   81   93 1   
    83   82   83 1   
    84   82   85 1   
    85   82   94 1   
    86   83   84 2   
    87   83  102 1   
    88   85   86 1   
    89   85   95 1   
    90   85   96 1   
    91   86   87 ar  
    92   86   88 ar  
    93   87   89 ar  
    94   87   97 1   
    95   88   90 ar  
    96   88   98 1   
    97   89   91 ar  
    98   89   99 1   
    99   90   91 ar  
   100   90  100 1   
   101   91   92 1   
   102   92  101 1   
   103  102  103 1   
   104  102  110 1   
   105  103  104 1   
   106  103  106 1   
   107  103  111 1   
   108  104  105 2   
   109  104  121 1   
   110  106  107 1   
   111  106  108 1   
   112  106  112 1   
   113  107  109 1   
   114  107  113 1   
   115  107  114 1   
   116  108  115 1   
   117  108  116 1   
   118  108  117 1   
   119  109  118 1   
   120  109  119 1   
   121  109  120 1   
   122  121  122 1   
   123  121  127 1   
   124  122  123 1   
   125  122  125 1   
   126  122  128 1   
   127  123  124 2   
   128  123  132 1   
   129  125  126 1   
   130  125  129 1   
   131  125  130 1   
   132  126  131 1   
   133  132  133 1   
   134  132  137 1   
   135  133  134 1   
   136  133  136 1   
   137  133  138 1   
   138  134  135 2   
   139  134  142 1   
   140  136  139 1   
   141  136  140 1   
   142  136  141 1   
   143  142  143 1   
   144  142  147 1   
   145  143  144 1   
   146  143  146 1   
   147  143  148 1   
   148  144  145 2   
   149  144  152 1   
   150  146  149 1   
   151  146  150 1   
   152  146  151 1   
   153  152  153 1   
   154  152  161 1   
   155  153  154 1   
   156  153  156 1   
   157  153  162 1   
   158  154  155 2   
   159  154  167 1   
   160  156  157 1   
   161  156  163 1   
   162  156  164 1   
   163  157  158 1   
   164  157  165 1   
   165  157  166 1   
   166  158  159 1   
   167  158  160 1   
   168  167  168 1   
   169  167  172 1   
   170  168  169 1   
   171  168  170 1   
   172  168  171 1   
   173  174  175 1   
   174  174  176 1   
   175  177  178 1   
   176  177  179 1   
   177  180  181 1   
   178  180  182 1   
   179  183  184 1   
   180  183  185 1   
@<TRIPOS>SUBSTRUCTURE
     1 MOL         1 TEMP              0 ****  ****    0 ROOT
