@<TRIPOS>MOLECULE
MOL
  192   187     1     0     0
SMALL
resp


@<TRIPOS>ATOM
      1 C1          9.0850    1.0880    2.0060 c3        1 MOL     -0.433168
      2 C2          7.9360    0.5610    1.1370 c         1 MOL      0.694986
      3 O1          6.8540    0.2250    1.6140 o         1 MOL     -0.670626
      4 H1          9.2250    0.4270    2.8610 hc        1 MOL      0.110554
      5 H2         10.0010    1.1200    1.4180 hc        1 MOL      0.110554
      6 H3          8.8430    2.0910    2.3590 hc        1 MOL      0.110554
      7 N1          8.3020    0.2270   -0.0640 n         1 MOL     -0.464440
      8 C3          7.3480   -0.1200   -1.1330 c3        1 MOL     -0.031264
      9 C4          6.8650   -1.6140   -1.1040 c         1 MOL      0.428378
     10 O2          6.8040   -2.2520   -2.1870 o         1 MOL     -0.438100
     11 C5          7.8070    0.2870   -2.5060 c3        1 MOL     -0.230828
     12 C6          9.1470   -0.3790   -2.9780 c         1 MOL      0.748179
     13 O3          9.5240   -0.0920   -4.1380 o         1 MOL     -0.662130
     14 O4          9.7800   -1.0710   -2.2010 o         1 MOL     -0.662130
     15 H4          9.2860    0.1260   -0.2330 hn        1 MOL      0.282292
     16 H5          6.4510    0.4570   -0.8660 h1        1 MOL      0.134615
     17 H6          8.1250    1.3240   -2.3360 hc        1 MOL      0.071217
     18 H7          6.9960    0.3930   -3.2260 hc        1 MOL      0.071217
     19 N2          6.6090   -2.1790    0.0960 n         1 MOL     -0.307201
     20 C7          6.0440   -3.4420    0.3710 c3        1 MOL      0.184506
     21 C8          4.6440   -3.6580   -0.2390 c         1 MOL      0.439253
     22 O5          4.4010   -4.7090   -0.8060 o         1 MOL     -0.509217
     23 C9          6.1440   -3.7460    1.8230 c3        1 MOL     -0.085320
     24 C10         7.4980   -3.4190    2.5800 c3        1 MOL     -0.005460
     25 C11         8.7330   -4.2350    2.0770 c3        1 MOL     -0.106729
     26 C12        10.0700   -3.9780    2.9060 c3        1 MOL     -0.090530
     27 N3          9.9400   -4.0430    4.3550 n4        1 MOL     -0.166078
     28 H8          6.7110   -1.5230    0.8480 hn        1 MOL      0.201084
     29 H9          6.6360   -4.2300   -0.0980 h1        1 MOL      0.029929
     30 H10         5.9530   -4.8190    1.8890 hc        1 MOL      0.023111
     31 H11         5.4110   -3.1420    2.3620 hc        1 MOL      0.023111
     32 H12         7.3980   -3.6200    3.6520 hc        1 MOL     -0.002551
     33 H13         7.6890   -2.3570    2.4580 hc        1 MOL     -0.002551
     34 H14         8.8780   -3.8620    1.0580 hc        1 MOL      0.091659
     35 H15         8.5020   -5.2950    1.9530 hc        1 MOL      0.091659
     36 H16        10.3780   -2.9390    2.8090 hx        1 MOL      0.114201
     37 H17        10.8520   -4.6570    2.5650 hx        1 MOL      0.114201
     38 H18        10.7640   -3.7410    4.8580 hn        1 MOL      0.248933
     39 H19         9.1510   -3.5420    4.7360 hn        1 MOL      0.248933
     40 H20         9.5460   -4.9220    4.6320 hn        1 MOL      0.248933
     41 N4          3.7050   -2.6660   -0.2100 n         1 MOL     -0.401610
     42 C13         3.7250   -1.5090    0.6910 c3        1 MOL     -0.024336
     43 C14         3.8400   -0.1750   -0.1100 c         1 MOL      0.121796
     44 O6          3.6870   -0.2170   -1.3320 o         1 MOL     -0.386646
     45 C15         2.4070   -1.4510    1.5990 c3        1 MOL     -0.058222
     46 C16         1.1400   -1.8020    0.8870 c         1 MOL      0.668405
     47 O7          0.5260   -0.8480    0.4360 o         1 MOL     -0.693972
     48 O8          0.8590   -3.0180    0.6770 o         1 MOL     -0.693972
     49 H21         2.8080   -2.9000   -0.5940 hn        1 MOL      0.375570
     50 H22         4.5500   -1.5150    1.4080 h1        1 MOL      0.136513
     51 H23         2.3480   -0.4320    1.9880 hc        1 MOL     -0.028236
     52 H24         2.4840   -2.0890    2.4720 hc        1 MOL     -0.028236
     53 N5          4.0310    0.9200    0.5940 n         1 MOL      0.150315
     54 C17         3.8830    2.2830    0.1770 c3        1 MOL     -0.445105
     55 C18         2.6540    2.7150   -0.6930 c         1 MOL      0.754806
     56 O9          1.5570    2.2340   -0.5150 o         1 MOL     -0.720698
     57 H25         4.2970    0.7320    1.5510 hn        1 MOL      0.191173
     58 H26         4.6830    2.3850   -0.5610 h1        1 MOL      0.118724
     59 H27         4.0150    2.9870    1.0030 h1        1 MOL      0.118724
     60 N6          2.8510    3.7500   -1.4960 n         1 MOL     -0.507543
     61 C19         1.8590    4.6540   -2.0500 c3        1 MOL      0.277426
     62 C20         2.3500    6.1140   -2.1900 c         1 MOL      0.404552
     63 O10         3.5090    6.3850   -2.4780 o         1 MOL     -0.514290
     64 C21         1.4290    4.1070   -3.4240 c3        1 MOL     -0.010465
     65 C22         0.9280    2.6390   -3.4210 c         1 MOL      0.674495
     66 O11         1.7750    1.7990   -3.8640 o         1 MOL     -0.698415
     67 O12        -0.2110    2.3500   -3.0280 o         1 MOL     -0.698415
     68 H28         3.8330    3.9580   -1.6930 hn        1 MOL      0.287154
     69 H29         0.9390    4.6070   -1.4770 h1        1 MOL     -0.005899
     70 H30         2.1200    4.3470   -4.2240 hc        1 MOL     -0.007460
     71 H31         0.5020    4.6290   -3.7030 hc        1 MOL     -0.007460
     72 N7          1.4470    7.0810   -2.1500 n         1 MOL     -0.418754
     73 C23        -0.0590    7.0870   -2.1190 c3        1 MOL     -0.032729
     74 C24        -0.5500    6.5570   -0.7870 c         1 MOL      0.419764
     75 O13         0.1640    6.6970    0.2190 o         1 MOL     -0.457569
     76 H32         1.8450    8.0000   -2.2890 hn        1 MOL      0.309520
     77 H33        -0.4850    6.4930   -2.9380 h1        1 MOL      0.078042
     78 H34        -0.4320    8.0850   -2.3730 h1        1 MOL      0.078042
     79 N8         -1.7880    5.9850   -0.7460 n         1 MOL     -0.310032
     80 C25        -2.3610    5.4160    0.4800 c3        1 MOL      0.020305
     81 C26        -1.6540    4.0880    0.8250 c         1 MOL      0.379037
     82 O14        -1.2050    3.3320   -0.0530 o         1 MOL     -0.623384
     83 C27        -3.8980    5.1910    0.3810 c3        1 MOL      0.182415
     84 C28        -4.3680    4.4230   -0.8630 c3        1 MOL     -0.123507
     85 O15        -4.5060    6.4550    0.4100 oh        1 MOL     -0.603806
     86 H35        -2.2310    5.9130   -1.6480 hn        1 MOL      0.257273
     87 H36        -2.1580    6.1780    1.2340 h1        1 MOL      0.099537
     88 H37        -4.1680    4.5950    1.2630 h1        1 MOL      0.006099
     89 H38        -5.3160    6.3120    0.8980 ho        1 MOL      0.399548
     90 H39        -3.9840    3.3970   -0.8270 hc        1 MOL      0.054537
     91 H40        -5.4560    4.4090   -0.9500 hc        1 MOL      0.054537
     92 H41        -4.0100    4.8780   -1.7910 hc        1 MOL      0.054537
     93 N9         -1.6910    3.8560    2.1280 n         1 MOL     -0.283208
     94 C29        -1.1890    2.6780    2.8310 c3        1 MOL     -0.017762
     95 C30        -1.7590    1.3370    2.4360 c         1 MOL      0.544447
     96 O16        -2.1560    1.0830    1.3120 o         1 MOL     -0.488531
     97 C31         0.3290    2.5600    2.6040 c3        1 MOL      0.127374
     98 C32         1.1800    3.8150    2.4510 c3        1 MOL      0.006363
     99 C33         1.0570    1.7420    3.6920 c3        1 MOL     -0.264854
    100 C34         1.0940    4.9020    3.4510 c3        1 MOL     -0.413303
    101 H42        -2.0750    4.5550    2.7530 hn        1 MOL      0.251249
    102 H43        -1.5030    2.8010    3.8630 h1        1 MOL      0.046147
    103 H44         0.4630    2.0050    1.6820 hc        1 MOL      0.067832
    104 H45         0.8940    4.2190    1.4800 hc        1 MOL      0.077631
    105 H46         2.2390    3.5580    2.3380 hc        1 MOL      0.077631
    106 H47         1.0790    2.2610    4.6450 hc        1 MOL      0.057869
    107 H48         0.5760    0.7790    3.8330 hc        1 MOL      0.057869
    108 H49         2.0680    1.5690    3.3270 hc        1 MOL      0.057869
    109 H50         1.0930    4.4820    4.4500 hc        1 MOL      0.097441
    110 H51         2.0370    5.4340    3.4000 hc        1 MOL      0.097441
    111 H52         0.3110    5.5860    3.1130 hc        1 MOL      0.097441
    112 N10        -1.8840    0.4220    3.4180 n         1 MOL     -0.571185
    113 C35        -2.1200   -1.0420    3.1520 c3        1 MOL      0.047609
    114 C36        -3.5580   -1.3700    2.8850 c         1 MOL      0.580458
    115 O17        -3.7440   -2.5590    2.7190 o         1 MOL     -0.554214
    116 C37        -1.4710   -2.0800    4.1220 c3        1 MOL      0.301997
    117 C38        -2.2750   -2.1240    5.4690 c3        1 MOL     -0.392692
    118 O18        -0.1600   -1.7060    4.4720 oh        1 MOL     -0.584554
    119 H53        -1.6740    0.6620    4.3830 hn        1 MOL      0.322486
    120 H54        -1.6500   -1.3860    2.2250 h1        1 MOL      0.138662
    121 H55        -1.5380   -3.0980    3.7230 h1        1 MOL      0.043159
    122 H56         0.1940   -2.4650    4.9560 ho        1 MOL      0.398061
    123 H57        -3.3010   -2.4330    5.2940 hc        1 MOL      0.091315
    124 H58        -1.8480   -2.8480    6.1540 hc        1 MOL      0.091315
    125 H59        -2.1480   -1.1970    6.0370 hc        1 MOL      0.091315
    126 N11        -4.5010   -0.4680    2.8440 n         1 MOL     -0.477650
    127 C39        -5.8770   -0.7530    2.4670 c3        1 MOL     -0.087828
    128 C40        -5.9600   -1.0740    0.9870 c         1 MOL      0.532496
    129 O19        -5.5380   -0.2890    0.1940 o         1 MOL     -0.509016
    130 C41        -6.8020    0.4710    2.8260 c3        1 MOL      0.554341
    131 C42        -8.2830    0.1180    2.8660 c3        1 MOL     -0.371576
    132 O20        -6.4370    0.7970    4.1550 oh        1 MOL     -0.639862
    133 H60        -4.3180    0.4850    3.1540 hn        1 MOL      0.275630
    134 H61        -6.1760   -1.6890    2.9420 h1        1 MOL      0.061143
    135 H62        -6.6770    1.2570    2.0920 h1        1 MOL      0.015553
    136 H63        -6.4820   -0.0510    4.5980 ho        1 MOL      0.388379
    137 H64        -8.4360   -0.8240    3.3820 hc        1 MOL      0.078531
    138 H65        -8.9310    0.9060    3.2350 hc        1 MOL      0.078531
    139 H66        -8.7010   -0.0540    1.8740 hc        1 MOL      0.078531
    140 N12        -6.5490   -2.3060    0.6200 n         1 MOL     -0.510309
    141 C43        -6.8850   -2.7530   -0.7880 c3        1 MOL      0.213932
    142 C44        -5.6630   -2.7210   -1.7810 c         1 MOL      0.501373
    143 O21        -5.6670   -1.8350   -2.6460 o         1 MOL     -0.489230
    144 C45        -8.1170   -1.8850   -1.1980 c3        1 MOL     -0.614508
    145 C46        -9.4160   -2.1540   -0.4110 c3        1 MOL      0.238956
    146 C47       -10.6360   -1.4080   -1.0190 c3        1 MOL     -0.055775
    147 C48       -11.8630   -1.7780   -0.2020 c3        1 MOL      0.084097
    148 N13       -13.1150   -1.2870   -0.7890 n4        1 MOL     -0.176841
    149 H67        -6.8690   -2.9410    1.3220 hn        1 MOL      0.280656
    150 H68        -7.2930   -3.7600   -0.7850 h1        1 MOL      0.040930
    151 H69        -8.2290   -2.2350   -2.2230 hc        1 MOL      0.179317
    152 H70        -7.9600   -0.8030   -1.1790 hc        1 MOL      0.179317
    153 H71        -9.2450   -1.8820    0.6290 hc        1 MOL     -0.016314
    154 H72        -9.5800   -3.2300   -0.3340 hc        1 MOL     -0.016314
    155 H73       -10.7570   -1.7470   -2.0460 hc        1 MOL      0.040029
    156 H74       -10.3550   -0.3560   -0.9940 hc        1 MOL      0.040029
    157 H75       -11.7650   -1.4380    0.8260 hx        1 MOL      0.031946
    158 H76       -11.8290   -2.8600   -0.1060 hx        1 MOL      0.031946
    159 H77       -13.8470   -1.2550   -0.0920 hn        1 MOL      0.194250
    160 H78       -13.0040   -0.3710   -1.1840 hn        1 MOL      0.194250
    161 H79       -13.4120   -1.9350   -1.5150 hn        1 MOL      0.194250
    162 N14        -4.5750   -3.4380   -1.4240 n         1 MOL     -0.540057
    163 C49        -3.1610   -3.1970   -1.8910 c3        1 MOL      0.419371
    164 C50        -2.2200   -2.8240   -0.7250 c         1 MOL      0.218684
    165 O22        -2.0580   -1.6170   -0.6010 o         1 MOL     -0.428507
    166 C51        -2.6900   -4.4160   -2.7310 c3        1 MOL     -0.063036
    167 C52        -3.2350   -4.3190   -4.2260 c3        1 MOL     -0.116301
    168 C53        -3.0640   -5.6600   -4.9360 c         1 MOL      0.634951
    169 O23        -3.6660   -6.6840   -4.5480 o         1 MOL     -0.607509
    170 O24        -2.1080   -5.7410   -5.7410 o         1 MOL     -0.607509
    171 H80        -4.6760   -4.1940   -0.7640 hn        1 MOL      0.275068
    172 H81        -3.2130   -2.3570   -2.5750 h1        1 MOL      0.001218
    173 H82        -3.1480   -5.2890   -2.2720 hc        1 MOL      0.043822
    174 H83        -1.6010   -4.4370   -2.8120 hc        1 MOL      0.043822
    175 H84        -2.7990   -3.4810   -4.7750 hc        1 MOL      0.002770
    176 H85        -4.3090   -4.1390   -4.1290 hc        1 MOL      0.002770
    177 N15        -1.6640   -3.6950    0.1280 n         1 MOL     -0.179370
    178 C54        -1.9840   -5.1120    0.3140 c3        1 MOL     -0.067121
    179 H86        -2.8330   -5.2060    0.9910 h1        1 MOL      0.040262
    180 H87        -2.2360   -5.5590   -0.6490 h1        1 MOL      0.040262
    181 H88        -1.1220   -5.6260    0.7390 h1        1 MOL      0.040262
    182 H89        -0.9300   -3.3750    0.7480 hn        1 MOL      0.272102
    183 Ca1        -0.7650    0.8280   -1.0970 Ca        1 MOL      1.827088
    184 O25        -1.2950   -0.6730   -3.2710 oh        1 MOL     -0.903912
    185 H90        -0.9950   -1.5310   -3.5580 ho        1 MOL      0.431500
    186 H91        -1.4580   -0.1890   -4.0910 ho        1 MOL      0.431500
    187 O26         1.4740   -0.4900   -2.3930 oh        1 MOL     -0.903912
    188 H92         2.3730   -0.5530   -2.0570 ho        1 MOL      0.431500
    189 H93         1.5150    0.1810   -3.0690 ho        1 MOL      0.431500
    190 O27        -3.6200    1.0370   -1.5900 oh        1 MOL     -0.903912
    191 H94        -4.4970    1.3650   -1.8170 ho        1 MOL      0.431500
    192 H95        -3.7790    0.2150   -1.1270 ho        1 MOL      0.431500
@<TRIPOS>BOND
     1    1    2 1   
     2    1    4 1   
     3    1    5 1   
     4    1    6 1   
     5    2    3 2   
     6    2    7 1   
     7    7    8 1   
     8    7   15 1   
     9    8    9 1   
    10    8   11 1   
    11    8   16 1   
    12    9   10 2   
    13    9   19 1   
    14   11   12 1   
    15   11   17 1   
    16   11   18 1   
    17   12   13 1   
    18   12   14 1   
    19   19   20 1   
    20   19   28 1   
    21   20   21 1   
    22   20   23 1   
    23   20   29 1   
    24   21   22 2   
    25   21   41 1   
    26   23   24 1   
    27   23   30 1   
    28   23   31 1   
    29   24   25 1   
    30   24   32 1   
    31   24   33 1   
    32   25   26 1   
    33   25   34 1   
    34   25   35 1   
    35   26   27 1   
    36   26   36 1   
    37   26   37 1   
    38   27   38 1   
    39   27   39 1   
    40   27   40 1   
    41   41   42 1   
    42   41   49 1   
    43   42   43 1   
    44   42   45 1   
    45   42   50 1   
    46   43   44 2   
    47   43   53 1   
    48   45   46 1   
    49   45   51 1   
    50   45   52 1   
    51   46   47 1   
    52   46   48 1   
    53   53   54 1   
    54   53   57 1   
    55   54   55 1   
    56   54   58 1   
    57   54   59 1   
    58   55   56 2   
    59   55   60 1   
    60   60   61 1   
    61   60   68 1   
    62   61   62 1   
    63   61   64 1   
    64   61   69 1   
    65   62   63 2   
    66   62   72 1   
    67   64   65 1   
    68   64   70 1   
    69   64   71 1   
    70   65   66 1   
    71   65   67 1   
    72   72   73 1   
    73   72   76 1   
    74   73   74 1   
    75   73   77 1   
    76   73   78 1   
    77   74   75 2   
    78   74   79 1   
    79   79   80 1   
    80   79   86 1   
    81   80   81 1   
    82   80   83 1   
    83   80   87 1   
    84   81   82 2   
    85   81   93 1   
    86   83   84 1   
    87   83   85 1   
    88   83   88 1   
    89   84   90 1   
    90   84   91 1   
    91   84   92 1   
    92   85   89 1   
    93   93   94 1   
    94   93  101 1   
    95   94   95 1   
    96   94   97 1   
    97   94  102 1   
    98   95   96 2   
    99   95  112 1   
   100   97   98 1   
   101   97   99 1   
   102   97  103 1   
   103   98  100 1   
   104   98  104 1   
   105   98  105 1   
   106   99  106 1   
   107   99  107 1   
   108   99  108 1   
   109  100  109 1   
   110  100  110 1   
   111  100  111 1   
   112  112  113 1   
   113  112  119 1   
   114  113  114 1   
   115  113  116 1   
   116  113  120 1   
   117  114  115 2   
   118  114  126 1   
   119  116  117 1   
   120  116  118 1   
   121  116  121 1   
   122  117  123 1   
   123  117  124 1   
   124  117  125 1   
   125  118  122 1   
   126  126  127 1   
   127  126  133 1   
   128  127  128 1   
   129  127  130 1   
   130  127  134 1   
   131  128  129 2   
   132  128  140 1   
   133  130  131 1   
   134  130  132 1   
   135  130  135 1   
   136  131  137 1   
   137  131  138 1   
   138  131  139 1   
   139  132  136 1   
   140  140  141 1   
   141  140  149 1   
   142  141  142 1   
   143  141  144 1   
   144  141  150 1   
   145  142  143 2   
   146  142  162 1   
   147  144  145 1   
   148  144  151 1   
   149  144  152 1   
   150  145  146 1   
   151  145  153 1   
   152  145  154 1   
   153  146  147 1   
   154  146  155 1   
   155  146  156 1   
   156  147  148 1   
   157  147  157 1   
   158  147  158 1   
   159  148  159 1   
   160  148  160 1   
   161  148  161 1   
   162  162  163 1   
   163  162  171 1   
   164  163  164 1   
   165  163  166 1   
   166  163  172 1   
   167  164  165 2   
   168  164  177 1   
   169  166  167 1   
   170  166  173 1   
   171  166  174 1   
   172  167  168 1   
   173  167  175 1   
   174  167  176 1   
   175  168  169 1   
   176  168  170 1   
   177  177  178 1   
   178  177  182 1   
   179  178  179 1   
   180  178  180 1   
   181  178  181 1   
   182  184  185 1   
   183  184  186 1   
   184  187  188 1   
   185  187  189 1   
   186  190  191 1   
   187  190  192 1   
@<TRIPOS>SUBSTRUCTURE
     1 MOL         1 TEMP              0 ****  ****    0 ROOT
