@<TRIPOS>MOLECULE
MOL
  195   189     1     0     0
SMALL
resp


@<TRIPOS>ATOM
      1 C1          6.3480   -5.2380   -2.9000 c3        1 MOL     -0.312910
      2 C2          5.6030   -4.0660   -2.2620 c         1 MOL      0.744149
      3 O1          5.3650   -4.1870   -1.0660 o         1 MOL     -0.572513
      4 H1          5.8390   -5.5350   -3.8170 hc        1 MOL      0.076275
      5 H2          7.3690   -4.9360   -3.1340 hc        1 MOL      0.076275
      6 H3          6.3660   -6.0780   -2.2060 hc        1 MOL      0.076275
      7 N1          5.4380   -2.9850   -3.0140 n         1 MOL     -0.683767
      8 C3          5.0140   -1.6730   -2.5030 c3        1 MOL      0.604176
      9 C4          3.4900   -1.4330   -2.0270 c         1 MOL      0.192909
     10 O2          3.1470   -0.2750   -1.7440 o         1 MOL     -0.303671
     11 C5          5.5830   -0.5780   -3.3740 c3        1 MOL     -0.326756
     12 C6          7.0570   -0.5300   -3.6930 c         1 MOL      0.785047
     13 O3          7.8080    0.3090   -3.2000 o         1 MOL     -0.715274
     14 O4          7.4840   -1.3450   -4.5420 o         1 MOL     -0.715274
     15 H4          5.8570   -2.9710   -3.9380 hn        1 MOL      0.279616
     16 H5          5.5780   -1.4580   -1.5870 h1        1 MOL     -0.006862
     17 H6          5.3410    0.3960   -2.9410 hc        1 MOL     -0.001287
     18 H7          4.9860   -0.7120   -4.2690 hc        1 MOL     -0.001287
     19 N2          2.6740   -2.5370   -1.8990 n         1 MOL     -0.561920
     20 C7          1.1580   -2.4700   -1.9710 c3        1 MOL      0.378800
     21 C8          0.5780   -3.3070   -0.7820 c         1 MOL      0.324119
     22 O5          1.0480   -4.4150   -0.5740 o         1 MOL     -0.461969
     23 C9          0.6890   -2.9570   -3.3810 c3        1 MOL     -0.130823
     24 C10         1.2280   -2.1120   -4.5510 c3        1 MOL     -0.056200
     25 C11         0.2850   -2.4030   -5.7520 c3        1 MOL      0.239079
     26 C12         0.8540   -1.7890   -6.9430 c3        1 MOL     -0.072130
     27 N3          0.1920   -2.1920   -8.1870 n4        1 MOL     -0.127763
     28 H8          3.0950   -3.4540   -1.8430 hn        1 MOL      0.266517
     29 H9          0.9550   -1.4360   -1.6980 h1        1 MOL      0.065882
     30 H10        -0.4020   -2.9630   -3.4310 hc        1 MOL      0.037130
     31 H11         1.0140   -3.9880   -3.4840 hc        1 MOL      0.037130
     32 H12         2.2240   -2.4130   -4.8610 hc        1 MOL      0.027183
     33 H13         1.2130   -1.0520   -4.2840 hc        1 MOL      0.027183
     34 H14        -0.7370   -2.0800   -5.5760 hc        1 MOL     -0.027461
     35 H15         0.2450   -3.4790   -5.9650 hc        1 MOL     -0.027461
     36 H16         1.8820   -2.1260   -7.1360 hx        1 MOL      0.074186
     37 H17         0.7200   -0.7290   -6.7370 hx        1 MOL      0.074186
     38 H18         0.5900   -3.0720   -8.4810 hn        1 MOL      0.253776
     39 H19        -0.7760   -2.4780   -8.1480 hn        1 MOL      0.253776
     40 H20         0.2740   -1.5220   -8.9360 hn        1 MOL      0.253776
     41 N4         -0.5180   -2.8530   -0.0930 n         1 MOL     -0.313298
     42 C13        -1.1740   -1.5130   -0.0860 c3        1 MOL     -0.231083
     43 C14        -1.5550   -0.8910   -1.4110 c         1 MOL      0.740470
     44 O6         -0.8440   -0.0800   -1.9810 o         1 MOL     -0.592197
     45 C15        -0.4470   -0.5420    0.8560 c3        1 MOL     -0.144595
     46 C16        -0.2260   -1.1360    2.2240 c         1 MOL      0.777589
     47 O7         -1.1520   -1.7960    2.7210 o         1 MOL     -0.762720
     48 O8          0.8650   -1.0140    2.8710 o         1 MOL     -0.762720
     49 H21        -0.6120   -3.4070    0.7460 hn        1 MOL      0.222717
     50 H22        -2.1260   -1.5770    0.4280 h1        1 MOL      0.110150
     51 H23        -1.1360    0.2900    0.9960 hc        1 MOL      0.093930
     52 H24         0.5330   -0.2640    0.4690 hc        1 MOL      0.093930
     53 N5         -2.5370   -1.4480   -2.0860 n         1 MOL     -0.508397
     54 C17        -3.6820   -2.2880   -1.5490 c3        1 MOL      0.155122
     55 C18        -4.4420   -3.0870   -2.6160 c         1 MOL      0.526541
     56 O9         -4.0790   -3.1080   -3.7960 o         1 MOL     -0.568144
     57 H25        -2.5200   -1.2280   -3.0700 hn        1 MOL      0.287609
     58 H26        -4.3510   -1.7260   -0.9020 h1        1 MOL      0.012777
     59 H27        -3.2240   -3.0130   -0.8810 h1        1 MOL      0.012777
     60 N6         -5.4640   -3.8420   -2.2170 n         1 MOL     -0.427519
     61 C19        -6.0410   -3.9250   -0.9170 c3        1 MOL     -0.012496
     62 C20        -6.9540   -2.7810   -0.5260 c         1 MOL      0.588123
     63 O10        -7.6510   -2.2320   -1.3410 o         1 MOL     -0.498273
     64 C21        -6.6800   -5.3230   -0.6890 c3        1 MOL     -0.116093
     65 C22        -7.7050   -5.7510   -1.7560 c         1 MOL      0.738544
     66 O11        -7.2600   -6.1920   -2.8440 o         1 MOL     -0.688810
     67 O12        -8.8950   -5.7900   -1.4400 o         1 MOL     -0.688810
     68 H28        -5.8860   -4.3360   -2.9940 hn        1 MOL      0.282277
     69 H29        -5.2180   -3.9190   -0.2090 h1        1 MOL      0.017940
     70 H30        -7.1550   -5.2180    0.2810 hc        1 MOL      0.007742
     71 H31        -5.8990   -6.0800   -0.5780 hc        1 MOL      0.007742
     72 N7         -7.0160   -2.4100    0.7420 n         1 MOL     -0.365772
     73 C23        -7.8860   -1.3540    1.3580 c3        1 MOL     -0.242924
     74 C24        -7.2020   -0.0190    1.5020 c         1 MOL      0.550771
     75 O13        -7.8460    1.0090    1.4830 o         1 MOL     -0.558616
     76 H32        -6.4820   -3.0100    1.3700 hn        1 MOL      0.232836
     77 H33        -8.2080   -1.5940    2.3730 h1        1 MOL      0.158626
     78 H34        -8.7550   -1.1690    0.7230 h1        1 MOL      0.158626
     79 N8         -5.8840    0.0650    1.8410 n         1 MOL     -0.359131
     80 C25        -5.0740    1.3000    2.0110 c3        1 MOL     -0.126626
     81 C26        -4.9040    1.9380    0.6810 c         1 MOL      0.814419
     82 O14        -4.2880    1.3140   -0.2230 o         1 MOL     -0.560226
     83 C27        -3.7930    1.0300    2.7780 c3        1 MOL      0.308365
     84 C28        -3.9610    0.4830    4.1880 c3        1 MOL     -0.446543
     85 O15        -3.1380    2.2320    2.9040 oh        1 MOL     -0.535245
     86 H35        -5.4510   -0.8510    1.8880 hn        1 MOL      0.210022
     87 H36        -5.7480    1.9570    2.5670 h1        1 MOL      0.077874
     88 H37        -3.1540    0.3020    2.2910 h1        1 MOL      0.048164
     89 H38        -3.4960    2.5210    3.7480 ho        1 MOL      0.357964
     90 H39        -3.0050    0.4920    4.7060 hc        1 MOL      0.109407
     91 H40        -4.7300    1.0270    4.7360 hc        1 MOL      0.109407
     92 H41        -4.3710   -0.5140    4.0000 hc        1 MOL      0.109407
     93 N9         -5.3710    3.1910    0.6120 n         1 MOL     -0.660573
     94 C29        -5.5460    3.9580   -0.6150 c3        1 MOL     -0.004149
     95 C30        -4.2680    4.5810   -1.1750 c         1 MOL      0.431859
     96 O16        -4.2920    5.3860   -2.1040 o         1 MOL     -0.546050
     97 C31        -6.6500    5.0770   -0.4420 c3        1 MOL      0.180837
     98 C32        -6.1910    6.3170    0.3720 c3        1 MOL     -0.077674
     99 C33        -7.8760    4.4240    0.1690 c3        1 MOL     -0.229345
    100 C34        -7.1480    7.3430    0.9040 c3        1 MOL     -0.255119
    101 H42        -5.8690    3.5270    1.4340 hn        1 MOL      0.307975
    102 H43        -5.8220    3.2410   -1.3880 h1        1 MOL      0.125982
    103 H44        -6.9130    5.2410   -1.4850 hc        1 MOL      0.023303
    104 H45        -5.3980    6.8250   -0.1770 hc        1 MOL      0.056522
    105 H46        -5.7150    6.1050    1.3200 hc        1 MOL      0.056522
    106 H47        -8.7460    5.0180   -0.1150 hc        1 MOL      0.071489
    107 H48        -8.1240    3.5110   -0.3860 hc        1 MOL      0.071489
    108 H49        -7.7880    4.3220    1.2540 hc        1 MOL      0.071489
    109 H50        -7.9340    7.1440    1.6410 hc        1 MOL      0.062614
    110 H51        -6.5070    8.1440    1.2690 hc        1 MOL      0.062614
    111 H52        -7.7940    7.7970    0.1580 hc        1 MOL      0.062614
    112 N10        -3.1440    4.2430   -0.5220 n         1 MOL     -0.252723
    113 C35        -1.8180    4.6620   -0.9800 c3        1 MOL     -0.008954
    114 C36        -0.8270    3.4550   -0.9100 c         1 MOL      0.643085
    115 O17        -0.9380    2.6600    0.0330 o         1 MOL     -0.525282
    116 C37        -1.2260    5.8320   -0.1250 c3        1 MOL      0.328102
    117 C38        -2.1740    7.0420   -0.1400 c3        1 MOL     -0.375982
    118 O18        -0.0510    6.3290   -0.7750 oh        1 MOL     -0.639753
    119 H53        -3.1980    3.6940    0.3230 hn        1 MOL      0.154611
    120 H54        -1.8240    5.0440   -1.9950 h1        1 MOL      0.108067
    121 H55        -1.0740    5.3980    0.8580 h1        1 MOL      0.014611
    122 H56         0.3420    7.0270   -0.2520 ho        1 MOL      0.398860
    123 H57        -3.1100    6.7600    0.3390 hc        1 MOL      0.092847
    124 H58        -1.6820    7.7700    0.5070 hc        1 MOL      0.092847
    125 H59        -2.3340    7.3540   -1.1710 hc        1 MOL      0.092847
    126 N11         0.0560    3.3210   -1.9630 n         1 MOL     -0.656947
    127 C39         1.2910    2.5350   -1.9800 c3        1 MOL      0.294422
    128 C40         2.2610    3.0400   -0.8520 c         1 MOL      0.391505
    129 O19         2.0460    4.1190   -0.2330 o         1 MOL     -0.535735
    130 C41         2.0450    2.6430   -3.3030 c3        1 MOL      0.332343
    131 C42         2.7910    3.9960   -3.4710 c3        1 MOL     -0.296007
    132 O20         1.0900    2.5360   -4.3060 oh        1 MOL     -0.592926
    133 H60        -0.0050    4.0910   -2.6090 hn        1 MOL      0.314406
    134 H61         1.0220    1.4950   -1.7940 h1        1 MOL      0.063539
    135 H62         2.6700    1.7590   -3.4420 h1        1 MOL     -0.016055
    136 H63         1.6190    2.6390   -5.1050 ho        1 MOL      0.367453
    137 H64         3.6650    4.1260   -2.8360 hc        1 MOL      0.069683
    138 H65         3.1610    4.0920   -4.4880 hc        1 MOL      0.069683
    139 H66         2.0450    4.7780   -3.3460 hc        1 MOL      0.069683
    140 N12         3.2890    2.2670   -0.5630 n         1 MOL     -0.297661
    141 C43         4.4690    2.6940    0.2850 c3        1 MOL      0.083478
    142 C44         4.7380    1.7150    1.3790 c         1 MOL      0.696360
    143 O21         5.1200    2.0420    2.5260 o         1 MOL     -0.637363
    144 C45         5.7290    2.9320   -0.6010 c3        1 MOL     -0.044262
    145 C46         6.8520    3.7120    0.1290 c3        1 MOL     -0.153761
    146 C47         6.3830    5.0120    0.8130 c3        1 MOL     -0.013831
    147 C48         7.6170    5.7530    1.2460 c3        1 MOL      0.072827
    148 N13         7.1920    6.9810    1.9150 n4        1 MOL     -0.405838
    149 H67         3.4040    1.3690   -1.0180 hn        1 MOL      0.002677
    150 H68         4.2040    3.6050    0.8150 h1        1 MOL      0.005987
    151 H69         5.5560    3.4470   -1.5480 hc        1 MOL      0.058986
    152 H70         6.0760    1.9700   -0.9890 hc        1 MOL      0.058986
    153 H71         7.6900    3.9370   -0.5240 hc        1 MOL      0.077597
    154 H72         7.3240    3.0240    0.8350 hc        1 MOL      0.077597
    155 H73         5.7740    4.8380    1.7030 hc        1 MOL      0.040440
    156 H74         5.7700    5.5200    0.0630 hc        1 MOL      0.040440
    157 H75         8.1080    5.9640    0.2930 hx        1 MOL      0.070094
    158 H76         8.3060    5.0370    1.7020 hx        1 MOL      0.070094
    159 H77         8.0030    7.5290    2.1800 hn        1 MOL      0.338283
    160 H78         6.6790    7.6180    1.3310 hn        1 MOL      0.338283
    161 H79         6.7080    6.8240    2.7840 hn        1 MOL      0.338283
    162 N14         4.5220    0.4420    1.0500 n         1 MOL     -0.264120
    163 C49         4.7720   -0.7240    1.9070 c3        1 MOL     -0.859640
    164 C50         6.2480   -0.9110    2.2190 c         1 MOL      0.720286
    165 O22         6.9780   -1.0040    1.2670 o         1 MOL     -0.523060
    166 C51         4.1170   -2.0570    1.4250 c3        1 MOL      0.688448
    167 C52         4.1740   -3.1820    2.4380 c3        1 MOL     -0.516615
    168 C53         3.7090   -3.0500    3.9150 c         1 MOL      0.803012
    169 O23         4.4160   -2.6010    4.8320 o         1 MOL     -0.749644
    170 O24         2.5400   -3.3980    4.1730 o         1 MOL     -0.749644
    171 H80         4.3170    0.2760    0.0720 hn        1 MOL      0.266764
    172 H81         4.2080   -0.6150    2.8310 h1        1 MOL      0.316332
    173 H82         4.4920   -2.3390    0.4420 hc        1 MOL     -0.072106
    174 H83         3.0870   -1.7050    1.3290 hc        1 MOL     -0.072106
    175 H84         5.1720   -3.6090    2.5010 hc        1 MOL      0.099275
    176 H85         3.4840   -3.9000    1.9800 hc        1 MOL      0.099275
    177 N15         6.6620   -1.0050    3.4950 n         1 MOL     -0.369911
    178 C54         8.0780   -1.2150    3.8420 c3        1 MOL     -0.152189
    179 H86         8.1480   -1.6260    4.8490 h1        1 MOL      0.080130
    180 H87         8.5260   -1.9140    3.1340 h1        1 MOL      0.080130
    181 H88         8.6080   -0.2640    3.8000 h1        1 MOL      0.080130
    182 H89         5.9290   -1.0890    4.1960 hn        1 MOL      0.329991
    183 Ca1         0.0480   -2.7000    4.8510 Ca        1 MOL      1.694605
    184 O25         1.4450   -2.2780    7.1700 oh        1 MOL     -0.825548
    185 H90         1.1480   -2.5740    8.0320 ho        1 MOL      0.411346
    186 H91         2.3800   -2.4760    7.1640 ho        1 MOL      0.411346
    187 O26        -0.2590   -0.3640    5.9340 oh        1 MOL     -0.825548
    188 H92        -0.7060   -0.3290    6.7740 ho        1 MOL      0.411346
    189 H93        -0.4620    0.4790    5.5160 ho        1 MOL      0.411346
    190 O27        -1.6480   -2.8460    7.1560 oh        1 MOL     -0.825548
    191 H94        -2.4650   -2.4500    7.4610 ho        1 MOL      0.411346
    192 H95        -1.2360   -3.1890    7.9480 ho        1 MOL      0.411346
    193 O28         1.1390   -5.0860    5.7160 oh        1 MOL     -0.825548
    194 H96         1.8930   -4.9040    5.1560 ho        1 MOL      0.411346
    195 H97         1.4780   -5.0280    6.6120 ho        1 MOL      0.411346
@<TRIPOS>BOND
     1    1    2 1   
     2    1    4 1   
     3    1    5 1   
     4    1    6 1   
     5    2    3 2   
     6    2    7 1   
     7    7    8 1   
     8    7   15 1   
     9    8    9 1   
    10    8   11 1   
    11    8   16 1   
    12    9   10 2   
    13    9   19 1   
    14   11   12 1   
    15   11   17 1   
    16   11   18 1   
    17   12   13 1   
    18   12   14 1   
    19   19   20 1   
    20   19   28 1   
    21   20   21 1   
    22   20   23 1   
    23   20   29 1   
    24   21   22 2   
    25   21   41 1   
    26   23   24 1   
    27   23   30 1   
    28   23   31 1   
    29   24   25 1   
    30   24   32 1   
    31   24   33 1   
    32   25   26 1   
    33   25   34 1   
    34   25   35 1   
    35   26   27 1   
    36   26   36 1   
    37   26   37 1   
    38   27   38 1   
    39   27   39 1   
    40   27   40 1   
    41   41   42 1   
    42   41   49 1   
    43   42   43 1   
    44   42   45 1   
    45   42   50 1   
    46   43   44 2   
    47   43   53 1   
    48   45   46 1   
    49   45   51 1   
    50   45   52 1   
    51   46   47 1   
    52   46   48 1   
    53   53   54 1   
    54   53   57 1   
    55   54   55 1   
    56   54   58 1   
    57   54   59 1   
    58   55   56 2   
    59   55   60 1   
    60   60   61 1   
    61   60   68 1   
    62   61   62 1   
    63   61   64 1   
    64   61   69 1   
    65   62   63 2   
    66   62   72 1   
    67   64   65 1   
    68   64   70 1   
    69   64   71 1   
    70   65   66 1   
    71   65   67 1   
    72   72   73 1   
    73   72   76 1   
    74   73   74 1   
    75   73   77 1   
    76   73   78 1   
    77   74   75 2   
    78   74   79 1   
    79   79   80 1   
    80   79   86 1   
    81   80   81 1   
    82   80   83 1   
    83   80   87 1   
    84   81   82 2   
    85   81   93 1   
    86   83   84 1   
    87   83   85 1   
    88   83   88 1   
    89   84   90 1   
    90   84   91 1   
    91   84   92 1   
    92   85   89 1   
    93   93   94 1   
    94   93  101 1   
    95   94   95 1   
    96   94   97 1   
    97   94  102 1   
    98   95   96 2   
    99   95  112 1   
   100   97   98 1   
   101   97   99 1   
   102   97  103 1   
   103   98  100 1   
   104   98  104 1   
   105   98  105 1   
   106   99  106 1   
   107   99  107 1   
   108   99  108 1   
   109  100  109 1   
   110  100  110 1   
   111  100  111 1   
   112  112  113 1   
   113  112  119 1   
   114  113  114 1   
   115  113  116 1   
   116  113  120 1   
   117  114  115 2   
   118  114  126 1   
   119  116  117 1   
   120  116  118 1   
   121  116  121 1   
   122  117  123 1   
   123  117  124 1   
   124  117  125 1   
   125  118  122 1   
   126  126  127 1   
   127  126  133 1   
   128  127  128 1   
   129  127  130 1   
   130  127  134 1   
   131  128  129 2   
   132  128  140 1   
   133  130  131 1   
   134  130  132 1   
   135  130  135 1   
   136  131  137 1   
   137  131  138 1   
   138  131  139 1   
   139  132  136 1   
   140  140  141 1   
   141  140  149 1   
   142  141  142 1   
   143  141  144 1   
   144  141  150 1   
   145  142  143 2   
   146  142  162 1   
   147  144  145 1   
   148  144  151 1   
   149  144  152 1   
   150  145  146 1   
   151  145  153 1   
   152  145  154 1   
   153  146  147 1   
   154  146  155 1   
   155  146  156 1   
   156  147  148 1   
   157  147  157 1   
   158  147  158 1   
   159  148  159 1   
   160  148  160 1   
   161  148  161 1   
   162  162  163 1   
   163  162  171 1   
   164  163  164 1   
   165  163  166 1   
   166  163  172 1   
   167  164  165 2   
   168  164  177 1   
   169  166  167 1   
   170  166  173 1   
   171  166  174 1   
   172  167  168 1   
   173  167  175 1   
   174  167  176 1   
   175  168  169 1   
   176  168  170 1   
   177  177  178 1   
   178  177  182 1   
   179  178  179 1   
   180  178  180 1   
   181  178  181 1   
   182  184  185 1   
   183  184  186 1   
   184  187  188 1   
   185  187  189 1   
   186  190  191 1   
   187  190  192 1   
   188  193  194 1   
   189  193  195 1   
@<TRIPOS>SUBSTRUCTURE
     1 MOL         1 TEMP              0 ****  ****    0 ROOT
