@<TRIPOS>MOLECULE
MOL
  195   189     1     0     0
SMALL
resp


@<TRIPOS>ATOM
      1 C1          6.1550    1.5480    5.6470 c3        1 MOL     -0.169154
      2 C2          5.4070    1.2150    4.3100 c         1 MOL      0.749131
      3 O1          4.9550    2.1690    3.6980 o         1 MOL     -0.596115
      4 H1          6.7370    0.6820    5.9640 hc        1 MOL      0.039600
      5 H2          6.8230    2.3950    5.4890 hc        1 MOL      0.039600
      6 H3          5.4270    1.7980    6.4190 hc        1 MOL      0.039600
      7 N1          5.3500   -0.0200    3.8350 n         1 MOL     -0.665362
      8 C3          4.8020   -0.3610    2.5040 c3        1 MOL      0.551725
      9 C4          3.2500   -0.3050    2.3110 c         1 MOL     -0.199642
     10 O2          2.8120   -0.6800    1.1910 o         1 MOL     -0.166492
     11 C5          5.2900   -1.7430    2.0860 c3        1 MOL     -0.005460
     12 C6          6.7700   -2.0380    2.1990 c         1 MOL      0.662739
     13 O3          7.2330   -2.1920    3.3960 o         1 MOL     -0.692904
     14 O4          7.4980   -2.0130    1.2030 o         1 MOL     -0.692904
     15 H4          5.9610   -0.6930    4.2570 hn        1 MOL      0.274107
     16 H5          5.3210    0.2100    1.7310 h1        1 MOL      0.035192
     17 H6          4.9230   -1.9270    1.0840 hc        1 MOL     -0.128631
     18 H7          4.7700   -2.4340    2.7440 hc        1 MOL     -0.128631
     19 N2          2.5030    0.0460    3.3830 n         1 MOL     -0.111921
     20 C7          1.0480    0.0860    3.3260 c3        1 MOL     -0.146493
     21 C8          0.6310    1.5340    2.9880 c         1 MOL      0.729548
     22 O5          1.0970    2.3780    3.6660 o         1 MOL     -0.533605
     23 C9          0.6020   -0.3600    4.7040 c3        1 MOL     -0.513218
     24 C10         0.5830   -1.8880    4.9280 c3        1 MOL      0.061154
     25 C11         1.8940   -2.7150    5.0260 c3        1 MOL      0.029025
     26 C12         1.4710   -4.1630    5.2950 c3        1 MOL     -0.144110
     27 N3          0.5050   -4.7120    4.2440 n4        1 MOL     -0.484768
     28 H8          2.9110    0.2880    4.2760 hn        1 MOL      0.216117
     29 H9          0.6840   -0.6140    2.5680 h1        1 MOL      0.187578
     30 H10        -0.4200   -0.0290    4.8810 hc        1 MOL      0.200687
     31 H11         1.1630    0.1120    5.5120 hc        1 MOL      0.200687
     32 H12         0.0470   -2.2420    4.0490 hc        1 MOL      0.028366
     33 H13         0.0780   -1.9770    5.8960 hc        1 MOL      0.028366
     34 H14         2.4900   -2.4320    5.8920 hc        1 MOL      0.048731
     35 H15         2.4780   -2.6490    4.1030 hc        1 MOL      0.048731
     36 H16         1.0790   -4.2600    6.2990 hx        1 MOL      0.126313
     37 H17         2.4180   -4.7040    5.3600 hx        1 MOL      0.126313
     38 H18        -0.3560   -4.2000    4.3000 hn        1 MOL      0.359868
     39 H19         0.9290   -4.6160    3.3330 hn        1 MOL      0.359868
     40 H20         0.2990   -5.6760    4.4810 hn        1 MOL      0.359868
     41 N4         -0.3030    1.8860    2.0770 n         1 MOL     -0.552375
     42 C13        -1.1250    0.9700    1.2860 c3        1 MOL      0.021832
     43 C14        -1.9210   -0.0530    2.0710 c         1 MOL      0.453456
     44 O6         -1.5150   -1.1330    2.4540 o         1 MOL     -0.532952
     45 C15        -0.3680    0.4530    0.0500 c3        1 MOL     -0.278619
     46 C16         0.2800    1.4790   -0.9580 c         1 MOL      0.874626
     47 O7         -0.1400    2.6490   -1.0170 o         1 MOL     -0.856336
     48 O8          1.2810    1.0910   -1.6120 o         1 MOL     -0.856336
     49 H21        -0.6340    2.8340    2.1330 hn        1 MOL      0.274197
     50 H22        -1.9390    1.5340    0.8200 h1        1 MOL      0.039820
     51 H23        -1.0880   -0.1000   -0.5520 hc        1 MOL      0.093147
     52 H24         0.3520   -0.3200    0.3090 hc        1 MOL      0.093147
     53 N5         -3.0770    0.3110    2.6050 n         1 MOL     -0.297578
     54 C17        -3.8510    1.4940    2.3230 c3        1 MOL     -0.239182
     55 C18        -5.1620    1.7060    3.1730 c         1 MOL      0.608906
     56 O9         -5.3960    0.9610    4.1450 o         1 MOL     -0.552043
     57 H25        -3.5700   -0.3600    3.1780 hn        1 MOL      0.272958
     58 H26        -4.1830    1.3530    1.2980 h1        1 MOL      0.137375
     59 H27        -3.1910    2.3400    2.4950 h1        1 MOL      0.137375
     60 N6         -5.9970    2.6970    2.8890 n         1 MOL     -0.455688
     61 C19        -5.9110    3.6960    1.8340 c3        1 MOL      0.117306
     62 C20        -6.5380    3.2690    0.5150 c         1 MOL      0.416326
     63 O10        -7.4800    2.4410    0.6080 o         1 MOL     -0.441022
     64 C21        -6.5640    5.0700    2.2120 c3        1 MOL     -0.265550
     65 C22        -8.0070    4.9690    2.7430 c         1 MOL      0.796685
     66 O11        -8.9560    5.2690    2.0110 o         1 MOL     -0.681932
     67 O12        -8.2510    4.6920    3.8990 o         1 MOL     -0.681932
     68 H28        -6.7650    2.7700    3.5450 hn        1 MOL      0.304147
     69 H29        -4.8560    3.8870    1.6540 h1        1 MOL     -0.008421
     70 H30        -6.5370    5.7790    1.3860 hc        1 MOL      0.039051
     71 H31        -5.8720    5.4850    2.9460 hc        1 MOL      0.039051
     72 N7         -6.0660    3.6290   -0.6750 n         1 MOL     -0.324564
     73 C23        -6.6400    3.2260   -1.9790 c3        1 MOL     -0.311884
     74 C24        -6.3640    1.7760   -2.4700 c         1 MOL      0.516807
     75 O13        -7.1370    1.2650   -3.2570 o         1 MOL     -0.531367
     76 H32        -5.2010    4.1450   -0.7200 hn        1 MOL      0.236586
     77 H33        -6.3320    3.9170   -2.7720 h1        1 MOL      0.170858
     78 H34        -7.7160    3.3520   -1.8590 h1        1 MOL      0.170858
     79 N8         -5.2780    1.0830   -2.0000 n         1 MOL     -0.357496
     80 C25        -4.9780   -0.3350   -2.3660 c3        1 MOL      0.162219
     81 C26        -5.0820   -1.2300   -1.1070 c         1 MOL      0.329228
     82 O14        -4.7380   -0.8870   -0.0140 o         1 MOL     -0.352664
     83 C27        -3.4990   -0.3740   -2.8780 c3        1 MOL      0.520230
     84 C28        -3.2180    0.6580   -3.9920 c3        1 MOL     -0.197389
     85 O15        -3.3580   -1.6770   -3.3430 oh        1 MOL     -0.690714
     86 H35        -4.7070    1.6990   -1.4490 hn        1 MOL      0.183224
     87 H36        -5.7520   -0.7010   -3.0390 h1        1 MOL      0.059351
     88 H37        -2.8680   -0.2480   -1.9980 h1        1 MOL     -0.089194
     89 H38        -2.4090   -1.7980   -3.3590 ho        1 MOL      0.426349
     90 H39        -2.1300    0.7360   -3.9920 hc        1 MOL      0.023474
     91 H40        -3.5960    0.2820   -4.9430 hc        1 MOL      0.023474
     92 H41        -3.6180    1.6570   -3.8240 hc        1 MOL      0.023474
     93 N9         -5.5450   -2.5020   -1.3820 n         1 MOL     -0.288531
     94 C29        -5.5940   -3.6650   -0.4450 c3        1 MOL     -0.423110
     95 C30        -4.2220   -4.2640   -0.2280 c         1 MOL      0.530185
     96 O16        -3.9560   -4.7490    0.8410 o         1 MOL     -0.577881
     97 C31        -6.5780   -4.7220   -1.0260 c3        1 MOL      0.334005
     98 C32        -7.0010   -5.7950   -0.0400 c3        1 MOL     -0.029536
     99 C33        -5.9970   -5.3460   -2.3130 c3        1 MOL     -0.359771
    100 C34        -8.1500   -6.6780   -0.5110 c3        1 MOL     -0.121193
    101 H42        -5.7120   -2.6600   -2.3670 hn        1 MOL      0.240003
    102 H43        -6.0540   -3.3900    0.5050 h1        1 MOL      0.211695
    103 H44        -7.4700   -4.1950   -1.3570 hc        1 MOL     -0.009976
    104 H45        -7.3180   -5.2860    0.8700 hc        1 MOL      0.024265
    105 H46        -6.1410   -6.4680    0.0290 hc        1 MOL      0.024265
    106 H47        -5.1900   -6.0620   -2.1270 hc        1 MOL      0.088639
    107 H48        -6.8070   -5.8030   -2.8710 hc        1 MOL      0.088639
    108 H49        -5.6420   -4.7460   -3.1460 hc        1 MOL      0.088639
    109 H50        -8.3660   -7.4250    0.2590 hc        1 MOL      0.028013
    110 H51        -8.9960   -5.9910   -0.5490 hc        1 MOL      0.028013
    111 H52        -8.0240   -7.1110   -1.5110 hc        1 MOL      0.028013
    112 N10        -3.3390   -4.1010   -1.1920 n         1 MOL     -0.073129
    113 C35        -1.9350   -4.6970   -1.1570 c3        1 MOL     -0.048066
    114 C36        -0.8700   -3.6510   -0.9020 c         1 MOL      0.405587
    115 O17        -1.0390   -2.5040   -1.3980 o         1 MOL     -0.448242
    116 C37        -1.6660   -5.5780   -2.3580 c3        1 MOL      0.347185
    117 C38        -1.8080   -4.9300   -3.7170 c3        1 MOL     -0.360095
    118 O18        -2.5950   -6.6920   -2.3360 oh        1 MOL     -0.612347
    119 H53        -3.6650   -3.4590   -1.8980 hn        1 MOL      0.110352
    120 H54        -1.8580   -5.3450   -0.2830 h1        1 MOL      0.029018
    121 H55        -0.6210   -5.8750   -2.3040 h1        1 MOL     -0.017156
    122 H56        -2.4050   -7.2360   -1.5670 ho        1 MOL      0.374657
    123 H57        -2.7560   -4.4190   -3.8230 hc        1 MOL      0.112685
    124 H58        -0.9450   -4.2810   -3.8730 hc        1 MOL      0.112685
    125 H59        -1.7920   -5.7630   -4.4280 hc        1 MOL      0.112685
    126 N11         0.2630   -4.0720   -0.2810 n         1 MOL     -0.299015
    127 C39         1.4460   -3.1970   -0.2010 c3        1 MOL      0.011157
    128 C40         2.0120   -2.6770   -1.5530 c         1 MOL      0.202729
    129 O19         1.7920   -3.2010   -2.6600 o         1 MOL     -0.462618
    130 C41         2.5540   -3.8840    0.5140 c3        1 MOL      0.028388
    131 C42         2.9880   -5.2470   -0.0510 c3        1 MOL     -0.359528
    132 O20         2.2260   -4.0520    1.9040 oh        1 MOL     -0.593306
    133 H60         0.3560   -4.9800    0.1560 hn        1 MOL      0.263974
    134 H61         1.2440   -2.2850    0.3540 h1        1 MOL      0.128778
    135 H62         3.4610   -3.2790    0.5090 h1        1 MOL      0.122184
    136 H63         3.0630   -4.2550    2.3220 ho        1 MOL      0.441301
    137 H64         2.2460   -6.0090    0.2020 hc        1 MOL      0.110536
    138 H65         3.0610   -5.2020   -1.1360 hc        1 MOL      0.110536
    139 H66         3.8810   -5.6710    0.3890 hc        1 MOL      0.110536
    140 N12         2.8300   -1.6390   -1.4830 n         1 MOL      0.017216
    141 C43         3.6990   -1.0610   -2.5650 c3        1 MOL     -0.067781
    142 C44         4.2220    0.3550   -2.4410 c         1 MOL      0.764308
    143 O21         4.5670    0.9600   -3.4740 o         1 MOL     -0.679022
    144 C45         4.9070   -2.0090   -2.6870 c3        1 MOL     -0.325706
    145 C46         5.7470   -1.9110   -3.9890 c3        1 MOL      0.264542
    146 C47         7.0600   -2.6740   -4.0320 c3        1 MOL     -0.370086
    147 C48         8.0250   -2.3740   -2.9060 c3        1 MOL      0.263886
    148 N13         9.2620   -3.1630   -2.9400 n4        1 MOL     -0.508180
    149 H67         2.7730   -1.0400   -0.6810 hn        1 MOL      0.295793
    150 H68         3.0720   -1.1500   -3.4470 h1        1 MOL      0.071161
    151 H69         4.6110   -3.0520   -2.7220 hc        1 MOL      0.101060
    152 H70         5.5810   -1.8680   -1.8370 hc        1 MOL      0.101060
    153 H71         6.0980   -0.8850   -3.9980 hc        1 MOL     -0.015499
    154 H72         5.0880   -2.1820   -4.8150 hc        1 MOL     -0.015499
    155 H73         7.5050   -2.4800   -5.0060 hc        1 MOL      0.087585
    156 H74         6.8100   -3.7320   -4.1210 hc        1 MOL      0.087585
    157 H75         7.4900   -2.6130   -1.9790 hx        1 MOL      0.041800
    158 H76         8.2560   -1.3140   -2.8600 hx        1 MOL      0.041800
    159 H77         9.8740   -2.7230   -3.6140 hn        1 MOL      0.344287
    160 H78         9.7650   -3.0940   -2.0600 hn        1 MOL      0.344287
    161 H79         9.0910   -4.1350   -3.1480 hn        1 MOL      0.344287
    162 N14         4.4030    0.9230   -1.2230 n         1 MOL      0.020770
    163 C49         4.5790    2.3590   -0.9660 c3        1 MOL     -0.959270
    164 C50         6.0770    2.6720   -0.8020 c         1 MOL      0.589953
    165 O22         6.6840    2.1380    0.1310 o         1 MOL     -0.513889
    166 C51         3.7860    2.7430    0.2720 c3        1 MOL      0.524197
    167 C52         3.7790    4.1920    0.6130 c3        1 MOL     -1.286083
    168 C53         3.6540    5.1180   -0.5930 c         1 MOL      1.223834
    169 O23         4.6210    5.4710   -1.3050 o         1 MOL     -0.859520
    170 O24         2.5880    5.7800   -0.7440 o         1 MOL     -0.859520
    171 H80         4.0560    0.4170   -0.4210 hn        1 MOL     -0.017477
    172 H81         4.1520    2.8570   -1.8380 h1        1 MOL      0.237497
    173 H82         4.1750    2.2510    1.1650 hc        1 MOL      0.059965
    174 H83         2.7600    2.4060    0.1680 hc        1 MOL      0.059965
    175 H84         4.7760    4.4780    0.9530 hc        1 MOL      0.349198
    176 H85         3.0530    4.4460    1.3830 hc        1 MOL      0.349198
    177 N15         6.7320    3.4710   -1.6730 n         1 MOL     -0.169902
    178 C54         8.1940    3.8560   -1.7100 c3        1 MOL     -0.221777
    179 H86         8.3670    4.5410   -2.5400 h1        1 MOL      0.094128
    180 H87         8.4660    4.3430   -0.7740 h1        1 MOL      0.094128
    181 H88         8.8020    2.9620   -1.8460 h1        1 MOL      0.094128
    182 H89         6.2750    3.9600   -2.4410 hn        1 MOL      0.328851
    183 Ca1         0.3480    5.0670   -1.7290 Ca        1 MOL      1.756342
    184 O25         1.8690    3.3560   -3.0260 oh        1 MOL     -0.877434
    185 H90         1.8750    2.5220   -2.5450 ho        1 MOL      0.440811
    186 H91         2.0300    3.1110   -3.9330 ho        1 MOL      0.440811
    187 O26        -1.7500    4.6330   -3.6360 oh        1 MOL     -0.877434
    188 H92        -1.7850    4.5210   -4.5860 ho        1 MOL      0.440811
    189 H93        -2.6320    4.4350   -3.3350 ho        1 MOL      0.440811
    190 O27        -0.4320    7.4460   -2.4630 oh        1 MOL     -0.877434
    191 H94        -0.0370    7.9600   -3.1650 ho        1 MOL      0.440811
    192 H95        -1.1970    7.9630   -2.1870 ho        1 MOL      0.440811
    193 O28         1.2090    6.0430   -4.4420 oh        1 MOL     -0.877434
    194 H96         1.9140    5.4760   -4.7660 ho        1 MOL      0.440811
    195 H97         0.9210    6.5400   -5.2070 ho        1 MOL      0.440811
@<TRIPOS>BOND
     1    1    2 1   
     2    1    4 1   
     3    1    5 1   
     4    1    6 1   
     5    2    3 2   
     6    2    7 1   
     7    7    8 1   
     8    7   15 1   
     9    8    9 1   
    10    8   11 1   
    11    8   16 1   
    12    9   10 2   
    13    9   19 1   
    14   11   12 1   
    15   11   17 1   
    16   11   18 1   
    17   12   13 1   
    18   12   14 1   
    19   19   20 1   
    20   19   28 1   
    21   20   21 1   
    22   20   23 1   
    23   20   29 1   
    24   21   22 2   
    25   21   41 1   
    26   23   24 1   
    27   23   30 1   
    28   23   31 1   
    29   24   25 1   
    30   24   32 1   
    31   24   33 1   
    32   25   26 1   
    33   25   34 1   
    34   25   35 1   
    35   26   27 1   
    36   26   36 1   
    37   26   37 1   
    38   27   38 1   
    39   27   39 1   
    40   27   40 1   
    41   41   42 1   
    42   41   49 1   
    43   42   43 1   
    44   42   45 1   
    45   42   50 1   
    46   43   44 2   
    47   43   53 1   
    48   45   46 1   
    49   45   51 1   
    50   45   52 1   
    51   46   47 1   
    52   46   48 1   
    53   53   54 1   
    54   53   57 1   
    55   54   55 1   
    56   54   58 1   
    57   54   59 1   
    58   55   56 2   
    59   55   60 1   
    60   60   61 1   
    61   60   68 1   
    62   61   62 1   
    63   61   64 1   
    64   61   69 1   
    65   62   63 2   
    66   62   72 1   
    67   64   65 1   
    68   64   70 1   
    69   64   71 1   
    70   65   66 1   
    71   65   67 1   
    72   72   73 1   
    73   72   76 1   
    74   73   74 1   
    75   73   77 1   
    76   73   78 1   
    77   74   75 2   
    78   74   79 1   
    79   79   80 1   
    80   79   86 1   
    81   80   81 1   
    82   80   83 1   
    83   80   87 1   
    84   81   82 2   
    85   81   93 1   
    86   83   84 1   
    87   83   85 1   
    88   83   88 1   
    89   84   90 1   
    90   84   91 1   
    91   84   92 1   
    92   85   89 1   
    93   93   94 1   
    94   93  101 1   
    95   94   95 1   
    96   94   97 1   
    97   94  102 1   
    98   95   96 2   
    99   95  112 1   
   100   97   98 1   
   101   97   99 1   
   102   97  103 1   
   103   98  100 1   
   104   98  104 1   
   105   98  105 1   
   106   99  106 1   
   107   99  107 1   
   108   99  108 1   
   109  100  109 1   
   110  100  110 1   
   111  100  111 1   
   112  112  113 1   
   113  112  119 1   
   114  113  114 1   
   115  113  116 1   
   116  113  120 1   
   117  114  115 2   
   118  114  126 1   
   119  116  117 1   
   120  116  118 1   
   121  116  121 1   
   122  117  123 1   
   123  117  124 1   
   124  117  125 1   
   125  118  122 1   
   126  126  127 1   
   127  126  133 1   
   128  127  128 1   
   129  127  130 1   
   130  127  134 1   
   131  128  129 2   
   132  128  140 1   
   133  130  131 1   
   134  130  132 1   
   135  130  135 1   
   136  131  137 1   
   137  131  138 1   
   138  131  139 1   
   139  132  136 1   
   140  140  141 1   
   141  140  149 1   
   142  141  142 1   
   143  141  144 1   
   144  141  150 1   
   145  142  143 2   
   146  142  162 1   
   147  144  145 1   
   148  144  151 1   
   149  144  152 1   
   150  145  146 1   
   151  145  153 1   
   152  145  154 1   
   153  146  147 1   
   154  146  155 1   
   155  146  156 1   
   156  147  148 1   
   157  147  157 1   
   158  147  158 1   
   159  148  159 1   
   160  148  160 1   
   161  148  161 1   
   162  162  163 1   
   163  162  171 1   
   164  163  164 1   
   165  163  166 1   
   166  163  172 1   
   167  164  165 2   
   168  164  177 1   
   169  166  167 1   
   170  166  173 1   
   171  166  174 1   
   172  167  168 1   
   173  167  175 1   
   174  167  176 1   
   175  168  169 1   
   176  168  170 1   
   177  177  178 1   
   178  177  182 1   
   179  178  179 1   
   180  178  180 1   
   181  178  181 1   
   182  184  185 1   
   183  184  186 1   
   184  187  188 1   
   185  187  189 1   
   186  190  191 1   
   187  190  192 1   
   188  193  194 1   
   189  193  195 1   
@<TRIPOS>SUBSTRUCTURE
     1 MOL         1 TEMP              0 ****  ****    0 ROOT
