@<TRIPOS>MOLECULE
MOL
  186   183     1     0     0
SMALL
resp


@<TRIPOS>ATOM
      1 C1        -11.9390    4.0220    4.8320 c3        1 MOL     -0.479909
      2 C2        -11.9530    3.3080    3.4460 c         1 MOL      0.712915
      3 O1        -12.2410    2.1090    3.3180 o         1 MOL     -0.560497
      4 H1        -11.2870    4.8940    4.7840 hc        1 MOL      0.125565
      5 H2        -12.9500    4.3390    5.0890 hc        1 MOL      0.125565
      6 H3        -11.5700    3.3350    5.5930 hc        1 MOL      0.125565
      7 N1        -11.8170    4.0740    2.3690 n         1 MOL     -0.375624
      8 C3        -11.7090    3.6570    0.9870 c3        1 MOL     -0.619778
      9 C4        -10.5940    2.5540    0.7120 c         1 MOL      0.466310
     10 O2         -9.5720    2.6150    1.3500 o         1 MOL     -0.602697
     11 C5        -11.5090    4.9120    0.1860 c3        1 MOL      0.129622
     12 C6        -10.4420    5.8650    0.7350 c         1 MOL      0.664583
     13 O3         -9.2740    5.8360    0.2930 o         1 MOL     -0.717860
     14 O4        -10.7900    6.8170    1.4430 o         1 MOL     -0.717860
     15 H4        -11.7680    5.0750    2.4880 hn        1 MOL      0.321463
     16 H5        -12.6580    3.1540    0.8330 h1        1 MOL      0.218264
     17 H6        -12.4180    5.4900    0.0500 hc        1 MOL      0.046377
     18 H7        -11.1830    4.6480   -0.8210 hc        1 MOL      0.046377
     19 N2        -10.8710    1.4250   -0.0070 n         1 MOL     -0.041025
     20 C7        -10.3200    0.0630    0.2130 c3        1 MOL     -0.410189
     21 C8         -8.7930   -0.0860   -0.1200 c         1 MOL      0.670490
     22 O5         -8.2080   -1.0860    0.2990 o         1 MOL     -0.554911
     23 C9        -11.1660   -0.9850   -0.5930 c3        1 MOL     -0.110328
     24 C10       -11.2410   -0.7320   -2.0950 c3        1 MOL      0.023747
     25 C11       -11.7960   -1.9770   -2.7680 c3        1 MOL      0.077459
     26 C12       -12.0900   -1.6980   -4.2500 c3        1 MOL      0.053537
     27 N3        -12.5660   -2.8550   -5.0410 n4        1 MOL     -0.398651
     28 H8        -11.5730    1.5320   -0.7160 hn        1 MOL      0.199671
     29 H9        -10.4910   -0.1160    1.2800 h1        1 MOL      0.231172
     30 H10       -12.1840   -0.8120   -0.2590 hc        1 MOL      0.070766
     31 H11       -10.8850   -2.0110   -0.3450 hc        1 MOL      0.070766
     32 H12       -10.2610   -0.5170   -2.5300 hc        1 MOL     -0.008112
     33 H13       -11.8750    0.1210   -2.3390 hc        1 MOL     -0.008112
     34 H14       -12.7320   -2.2900   -2.3080 hc        1 MOL      0.018715
     35 H15       -11.0850   -2.7830   -2.5850 hc        1 MOL      0.018715
     36 H16       -11.1950   -1.2780   -4.7160 hx        1 MOL      0.073230
     37 H17       -12.8580   -0.9280   -4.3020 hx        1 MOL      0.073230
     38 H18       -13.5170   -3.0830   -4.8030 hn        1 MOL      0.315842
     39 H19       -12.5080   -2.6150   -6.0240 hn        1 MOL      0.315842
     40 H20       -11.9570   -3.6440   -4.8500 hn        1 MOL      0.315842
     41 N4         -8.1930    0.8510   -0.8280 n         1 MOL      0.017026
     42 C13        -6.8160    0.8340   -1.2290 c3        1 MOL     -0.421340
     43 C14        -5.7700    1.2470   -0.1940 c         1 MOL      0.716766
     44 O6         -6.1180    2.0950    0.6320 o         1 MOL     -0.725172
     45 C15        -6.6440    1.7010   -2.4590 c3        1 MOL     -0.126302
     46 C16        -7.2020    3.1200   -2.3550 c         1 MOL      0.583936
     47 O7         -6.9550    3.8840   -3.3050 o         1 MOL     -0.655074
     48 O8         -7.8270    3.6520   -1.3650 o         1 MOL     -0.655074
     49 H21        -8.7390    1.6760   -1.0170 hn        1 MOL      0.084595
     50 H22        -6.5260   -0.1680   -1.5260 h1        1 MOL      0.130740
     51 H23        -7.1300    1.1430   -3.2650 hc        1 MOL      0.096242
     52 H24        -5.5850    1.7550   -2.7210 hc        1 MOL      0.096242
     53 N5         -4.5170    0.9400   -0.2510 n         1 MOL     -0.535886
     54 C17        -3.8990   -0.0720   -1.0590 c3        1 MOL      0.095349
     55 C18        -4.3860   -1.4850   -0.9210 c         1 MOL      0.660994
     56 O9         -5.1080   -1.8070   -0.0320 o         1 MOL     -0.503104
     57 H25        -3.8920    1.2740    0.4740 hn        1 MOL      0.344759
     58 H26        -2.8450   -0.1640   -0.7860 h1        1 MOL      0.038090
     59 H27        -3.9860    0.2460   -2.0980 h1        1 MOL      0.038090
     60 N6         -3.8750   -2.3500   -1.7860 n         1 MOL     -0.691638
     61 C19        -4.0500   -3.8260   -1.7910 c3        1 MOL      0.353608
     62 C20        -2.6890   -4.5060   -1.6110 c         1 MOL      0.408604
     63 O10        -1.6780   -4.0020   -2.0900 o         1 MOL     -0.516114
     64 C21        -4.6850   -4.3370   -3.0600 c3        1 MOL     -0.112960
     65 C22        -5.1150   -5.8040   -3.0390 c         1 MOL      0.612323
     66 O11        -5.0470   -6.3810   -4.1880 o         1 MOL     -0.669386
     67 O12        -5.5650   -6.3220   -1.9790 o         1 MOL     -0.669386
     68 H28        -3.2460   -1.9510   -2.4700 hn        1 MOL      0.294030
     69 H29        -4.6920   -4.1410   -0.9780 h1        1 MOL     -0.041019
     70 H30        -4.1580   -3.9930   -3.9500 hc        1 MOL      0.019055
     71 H31        -5.6440   -3.8340   -3.1950 hc        1 MOL      0.019055
     72 N7         -2.6570   -5.6900   -0.9890 n         1 MOL     -0.226915
     73 C23        -1.5110   -6.6180   -0.8320 c3        1 MOL     -0.342068
     74 C24        -0.4610   -6.2590    0.1100 c         1 MOL      0.539108
     75 O13         0.5000   -7.0650    0.4430 o         1 MOL     -0.568474
     76 H32        -3.5410   -5.9950   -0.6290 hn        1 MOL      0.234631
     77 H33        -1.0530   -6.6460   -1.8200 h1        1 MOL      0.174328
     78 H34        -1.9390   -7.5800   -0.5550 h1        1 MOL      0.174328
     79 N8         -0.4980   -5.0360    0.6760 n         1 MOL     -0.219880
     80 C25         0.4880   -4.5370    1.6080 c3        1 MOL      0.024155
     81 C26         0.7570   -3.0520    1.4460 c         1 MOL      0.388811
     82 O14        -0.1100   -2.2460    1.0990 o         1 MOL     -0.450249
     83 C27        -0.0200   -4.8560    3.0710 c3        1 MOL      0.237800
     84 C28        -1.4300   -4.5230    3.3660 c3        1 MOL     -0.466264
     85 O15         0.1290   -6.2680    3.4630 oh        1 MOL     -0.627116
     86 H35        -1.2650   -4.4190    0.4520 hn        1 MOL      0.155090
     87 H36         1.4560   -5.0160    1.4430 h1        1 MOL      0.075437
     88 H37         0.5550   -4.3040    3.8200 h1        1 MOL      0.083131
     89 H38        -0.7070   -6.7270    3.3540 ho        1 MOL      0.414688
     90 H39        -1.5980   -3.4490    3.4600 hc        1 MOL      0.123799
     91 H40        -2.2220   -5.0260    2.8090 hc        1 MOL      0.123799
     92 H41        -1.7560   -4.6930    4.3990 hc        1 MOL      0.123799
     93 N9          1.9920   -2.6790    1.7650 n         1 MOL     -0.339316
     94 C29         2.5090   -1.3440    1.6680 c3        1 MOL      0.030690
     95 C30         3.8140   -1.2710    0.8720 c         1 MOL      0.641268
     96 O16         4.0690   -0.4110    0.0170 o         1 MOL     -0.564823
     97 C31         2.6760   -0.5890    2.9890 c3        1 MOL      0.000223
     98 C32         1.4360   -0.9000    3.9260 c3        1 MOL      0.101188
     99 C33         2.7850    0.9680    2.8470 c3        1 MOL     -0.183762
    100 C34         1.3180   -0.0100    5.2000 c3        1 MOL     -0.150483
    101 H42         2.5610   -3.3610    2.2340 hn        1 MOL      0.249153
    102 H43         1.8770   -0.7210    1.0250 h1        1 MOL      0.066002
    103 H44         3.5720   -0.8890    3.5470 hc        1 MOL      0.016235
    104 H45         1.5210   -1.9370    4.2590 hc        1 MOL     -0.016176
    105 H46         0.5680   -0.7990    3.2630 hc        1 MOL     -0.016176
    106 H47         3.4560    1.3510    2.0790 hc        1 MOL      0.058551
    107 H48         1.8270    1.3540    2.5060 hc        1 MOL      0.058551
    108 H49         2.9880    1.4930    3.7830 hc        1 MOL      0.058551
    109 H50         0.9780    1.0030    4.9420 hc        1 MOL      0.035724
    110 H51         0.4650   -0.3880    5.7570 hc        1 MOL      0.035724
    111 H52         2.1720   -0.0320    5.8740 hc        1 MOL      0.035724
    112 N10         4.7000   -2.2140    1.1010 n         1 MOL     -0.555137
    113 C35         5.9500   -2.5030    0.3210 c3        1 MOL      0.073905
    114 C36         7.1480   -2.4840    1.2130 c         1 MOL      0.707233
    115 O17         6.9470   -2.7220    2.4040 o         1 MOL     -0.568883
    116 C37         5.8140   -3.8860   -0.3260 c3        1 MOL      0.240099
    117 C38         4.7270   -3.8980   -1.3470 c3        1 MOL     -0.413781
    118 O18         6.9790   -4.1780   -1.0450 oh        1 MOL     -0.645329
    119 H53         4.4660   -2.9180    1.7840 hn        1 MOL      0.260935
    120 H54         6.1920   -1.7620   -0.4410 h1        1 MOL      0.102794
    121 H55         5.6660   -4.6810    0.4030 h1        1 MOL      0.045000
    122 H56         6.7520   -4.9920   -1.5190 ho        1 MOL      0.419678
    123 H57         4.7280   -3.0480   -2.0200 hc        1 MOL      0.118725
    124 H58         4.7110   -4.8620   -1.8740 hc        1 MOL      0.118725
    125 H59         3.7340   -3.7710   -0.9070 hc        1 MOL      0.118725
    126 N11         8.3100   -2.1610    0.6530 n         1 MOL     -0.736113
    127 C39         9.5370   -1.9940    1.4060 c3        1 MOL      0.269567
    128 C40        10.1960   -0.6330    1.3240 c         1 MOL      0.547236
    129 O19        10.4420   -0.0470    2.3660 o         1 MOL     -0.556311
    130 C41        10.4850   -3.1440    1.0940 c3        1 MOL      0.318865
    131 C42        11.8870   -2.9960    1.6370 c3        1 MOL     -0.395493
    132 O20        10.6090   -3.2830   -0.3070 oh        1 MOL     -0.652574
    133 H60         8.3780   -2.0920   -0.3540 hn        1 MOL      0.386732
    134 H61         9.4330   -2.1450    2.4780 h1        1 MOL      0.021891
    135 H62        10.0020   -4.0410    1.4750 h1        1 MOL      0.023960
    136 H63        11.3850   -3.8250   -0.4800 ho        1 MOL      0.415932
    137 H64        12.3710   -3.9510    1.4370 hc        1 MOL      0.092477
    138 H65        12.3620   -2.2710    0.9700 hc        1 MOL      0.092477
    139 H66        11.8700   -2.6240    2.6610 hc        1 MOL      0.092477
    140 N12        10.4260   -0.1600    0.1070 n         1 MOL     -0.462791
    141 C43        10.9710    1.2120   -0.1430 c3        1 MOL      0.199056
    142 C44        10.2140    2.0200   -1.1630 c         1 MOL      0.411367
    143 O21         9.7520    1.4660   -2.1040 o         1 MOL     -0.515141
    144 C45        12.4580    1.2460   -0.5390 c3        1 MOL     -0.171943
    145 C46        13.4420    0.7330    0.4790 c3        1 MOL     -0.002773
    146 C47        14.8460    1.5280    0.5970 c3        1 MOL     -0.226803
    147 C48        15.5570    1.5100   -0.7160 c3        1 MOL      0.164039
    148 N13        16.8670    2.1690   -0.6650 n4        1 MOL     -0.245153
    149 H67        10.1170   -0.7780   -0.6410 hn        1 MOL      0.269933
    150 H68        10.8560    1.8400    0.7420 h1        1 MOL      0.030451
    151 H69        12.6310    2.3020   -0.7130 hc        1 MOL      0.051911
    152 H70        12.7280    0.6990   -1.4430 hc        1 MOL      0.051911
    153 H71        13.6920   -0.3020    0.2230 hc        1 MOL      0.043057
    154 H72        12.9290    0.7210    1.4440 hc        1 MOL      0.043057
    155 H73        15.3370    1.0060    1.4220 hc        1 MOL      0.083572
    156 H74        14.6920    2.5530    0.9160 hc        1 MOL      0.083572
    157 H75        14.9170    1.9690   -1.4760 hx        1 MOL      0.051905
    158 H76        15.7300    0.4910   -1.0450 hx        1 MOL      0.051905
    159 H77        17.4520    1.6300   -0.0490 hn        1 MOL      0.248969
    160 H78        17.2980    2.1380   -1.5850 hn        1 MOL      0.248969
    161 H79        16.8070    3.0870   -0.2570 hn        1 MOL      0.248969
    162 N14        10.0560    3.3030   -0.9970 n         1 MOL     -0.308787
    163 C49         9.2450    4.0590   -2.0140 c3        1 MOL      0.223654
    164 C50         7.6690    3.8890   -1.9390 c         1 MOL      0.367989
    165 O22         7.0780    3.6830   -2.9820 o         1 MOL     -0.512860
    166 C51         9.5070    5.5560   -1.9490 c3        1 MOL     -0.195042
    167 C52        10.9450    5.9000   -2.2320 c3        1 MOL     -0.016372
    168 C53        11.2300    7.3420   -2.1930 c         1 MOL      0.654806
    169 O23        11.2650    7.9380   -1.0870 o         1 MOL     -0.651034
    170 O24        11.3040    7.9780   -3.2710 o         1 MOL     -0.651034
    171 H80        10.3820    3.6750   -0.1210 hn        1 MOL      0.265221
    172 H81         9.5400    3.6910   -2.9930 h1        1 MOL      0.053657
    173 H82         9.2530    5.8850   -0.9410 hc        1 MOL      0.092981
    174 H83         8.9570    5.9110   -2.8150 hc        1 MOL      0.092981
    175 H84        11.3320    5.4510   -3.1460 hc        1 MOL     -0.045925
    176 H85        11.5600    5.4330   -1.4540 hc        1 MOL     -0.045925
    177 N15         7.0350    4.0180   -0.7830 n         1 MOL     -0.341853
    178 C54         7.5160    4.4160    0.5170 c3        1 MOL      0.008115
    179 H86         7.9260    5.4240    0.4590 h1        1 MOL      0.025980
    180 H87         6.6920    4.3990    1.2310 h1        1 MOL      0.025980
    181 H88         8.2950    3.7270    0.8440 h1        1 MOL      0.025980
    182 H89         6.0820    3.6860   -0.7780 hn        1 MOL      0.297391
    183 Ca1        -7.2120    4.4350    0.9920 Ca        1 MOL      1.731189
    184 O25        -7.5680    2.9260    3.2510 oh        1 MOL     -0.877759
    185 H90        -7.6880    3.0790    4.1910 ho        1 MOL      0.448453
    186 H91        -8.0880    2.1500    3.0620 ho        1 MOL      0.448453
@<TRIPOS>BOND
     1    1    2 1   
     2    1    4 1   
     3    1    5 1   
     4    1    6 1   
     5    2    3 2   
     6    2    7 1   
     7    7    8 1   
     8    7   15 1   
     9    8    9 1   
    10    8   11 1   
    11    8   16 1   
    12    9   10 2   
    13    9   19 1   
    14   11   12 1   
    15   11   17 1   
    16   11   18 1   
    17   12   13 1   
    18   12   14 1   
    19   19   20 1   
    20   19   28 1   
    21   20   21 1   
    22   20   23 1   
    23   20   29 1   
    24   21   22 2   
    25   21   41 1   
    26   23   24 1   
    27   23   30 1   
    28   23   31 1   
    29   24   25 1   
    30   24   32 1   
    31   24   33 1   
    32   25   26 1   
    33   25   34 1   
    34   25   35 1   
    35   26   27 1   
    36   26   36 1   
    37   26   37 1   
    38   27   38 1   
    39   27   39 1   
    40   27   40 1   
    41   41   42 1   
    42   41   49 1   
    43   42   43 1   
    44   42   45 1   
    45   42   50 1   
    46   43   44 2   
    47   43   53 1   
    48   45   46 1   
    49   45   51 1   
    50   45   52 1   
    51   46   47 1   
    52   46   48 1   
    53   53   54 1   
    54   53   57 1   
    55   54   55 1   
    56   54   58 1   
    57   54   59 1   
    58   55   56 2   
    59   55   60 1   
    60   60   61 1   
    61   60   68 1   
    62   61   62 1   
    63   61   64 1   
    64   61   69 1   
    65   62   63 2   
    66   62   72 1   
    67   64   65 1   
    68   64   70 1   
    69   64   71 1   
    70   65   66 1   
    71   65   67 1   
    72   72   73 1   
    73   72   76 1   
    74   73   74 1   
    75   73   77 1   
    76   73   78 1   
    77   74   75 2   
    78   74   79 1   
    79   79   80 1   
    80   79   86 1   
    81   80   81 1   
    82   80   83 1   
    83   80   87 1   
    84   81   82 2   
    85   81   93 1   
    86   83   84 1   
    87   83   85 1   
    88   83   88 1   
    89   84   90 1   
    90   84   91 1   
    91   84   92 1   
    92   85   89 1   
    93   93   94 1   
    94   93  101 1   
    95   94   95 1   
    96   94   97 1   
    97   94  102 1   
    98   95   96 2   
    99   95  112 1   
   100   97   98 1   
   101   97   99 1   
   102   97  103 1   
   103   98  100 1   
   104   98  104 1   
   105   98  105 1   
   106   99  106 1   
   107   99  107 1   
   108   99  108 1   
   109  100  109 1   
   110  100  110 1   
   111  100  111 1   
   112  112  113 1   
   113  112  119 1   
   114  113  114 1   
   115  113  116 1   
   116  113  120 1   
   117  114  115 2   
   118  114  126 1   
   119  116  117 1   
   120  116  118 1   
   121  116  121 1   
   122  117  123 1   
   123  117  124 1   
   124  117  125 1   
   125  118  122 1   
   126  126  127 1   
   127  126  133 1   
   128  127  128 1   
   129  127  130 1   
   130  127  134 1   
   131  128  129 2   
   132  128  140 1   
   133  130  131 1   
   134  130  132 1   
   135  130  135 1   
   136  131  137 1   
   137  131  138 1   
   138  131  139 1   
   139  132  136 1   
   140  140  141 1   
   141  140  149 1   
   142  141  142 1   
   143  141  144 1   
   144  141  150 1   
   145  142  143 2   
   146  142  162 1   
   147  144  145 1   
   148  144  151 1   
   149  144  152 1   
   150  145  146 1   
   151  145  153 1   
   152  145  154 1   
   153  146  147 1   
   154  146  155 1   
   155  146  156 1   
   156  147  148 1   
   157  147  157 1   
   158  147  158 1   
   159  148  159 1   
   160  148  160 1   
   161  148  161 1   
   162  162  163 1   
   163  162  171 1   
   164  163  164 1   
   165  163  166 1   
   166  163  172 1   
   167  164  165 2   
   168  164  177 1   
   169  166  167 1   
   170  166  173 1   
   171  166  174 1   
   172  167  168 1   
   173  167  175 1   
   174  167  176 1   
   175  168  169 1   
   176  168  170 1   
   177  177  178 1   
   178  177  182 1   
   179  178  179 1   
   180  178  180 1   
   181  178  181 1   
   182  184  185 1   
   183  184  186 1   
@<TRIPOS>SUBSTRUCTURE
     1 MOL         1 TEMP              0 ****  ****    0 ROOT
