@<TRIPOS>MOLECULE
MOL
  188   182     1     0     0
SMALL
resp


@<TRIPOS>ATOM
      1 C1          7.1650    1.9450    0.0330 c3        1 MOL     -0.453935
      2 C2          6.9900    0.4950    0.6110 c         1 MOL      0.670480
      3 O1          5.8360    0.0550    0.6520 o         1 MOL     -0.585040
      4 H1          6.2760    2.5350    0.2570 hc        1 MOL      0.127162
      5 H2          8.0370    2.4160    0.4880 hc        1 MOL      0.127162
      6 H3          7.3020    1.8910   -1.0470 hc        1 MOL      0.127162
      7 N1          7.9970   -0.1880    1.1760 n         1 MOL     -0.494683
      8 C3          8.1190   -1.6440    1.5340 c3        1 MOL     -0.050063
      9 C4          6.9470   -2.2890    2.3220 c         1 MOL      0.532962
     10 O2          6.7100   -3.5160    2.2870 o         1 MOL     -0.521026
     11 C5          8.4720   -2.4620    0.3150 c3        1 MOL     -0.135463
     12 C6          9.5160   -1.8090   -0.6260 c         1 MOL      0.716878
     13 O3          9.3950   -2.0830   -1.8070 o         1 MOL     -0.647395
     14 O4         10.4310   -1.1330   -0.1740 o         1 MOL     -0.647395
     15 H4          8.8850    0.2900    1.0960 hn        1 MOL      0.273195
     16 H5          8.9750   -1.7250    2.1910 h1        1 MOL      0.082601
     17 H6          7.5130   -2.6780   -0.1680 hc        1 MOL      0.065387
     18 H7          8.6940   -3.4820    0.6250 hc        1 MOL      0.065387
     19 N2          6.1850   -1.4780    2.9940 n         1 MOL     -0.441603
     20 C7          4.8830   -1.8950    3.6540 c3        1 MOL     -0.083084
     21 C8          3.7300   -2.4440    2.7410 c         1 MOL      0.565352
     22 O5          2.7790   -2.9210    3.3230 o         1 MOL     -0.518880
     23 C9          4.3270   -0.8550    4.6250 c3        1 MOL      0.061773
     24 C10         5.2930   -0.2970    5.7560 c3        1 MOL     -0.127714
     25 C11         4.6840    0.7850    6.6570 c3        1 MOL     -0.003536
     26 C12         3.2460    0.5550    7.2090 c3        1 MOL     -0.005398
     27 N3          2.6030    1.7680    7.7130 n4        1 MOL     -0.369936
     28 H8          6.5110   -0.5270    2.9860 hn        1 MOL      0.243861
     29 H9          5.1560   -2.7610    4.2680 h1        1 MOL      0.099332
     30 H10         3.4420   -1.3270    5.0330 hc        1 MOL      0.007040
     31 H11         4.0150   -0.0500    3.9640 hc        1 MOL      0.007040
     32 H12         6.2340    0.0980    5.3660 hc        1 MOL      0.073273
     33 H13         5.6150   -1.1130    6.3970 hc        1 MOL      0.073273
     34 H14         4.5080    1.6060    5.9630 hc        1 MOL      0.023958
     35 H15         5.3970    1.0750    7.4260 hc        1 MOL      0.023958
     36 H16         3.2330   -0.1300    8.0500 hx        1 MOL      0.100726
     37 H17         2.7210    0.2150    6.3170 hx        1 MOL      0.100726
     38 H18         3.2190    2.0970    8.4370 hn        1 MOL      0.282159
     39 H19         2.4680    2.3900    6.9300 hn        1 MOL      0.282159
     40 H20         1.6530    1.6270    8.0390 hn        1 MOL      0.282159
     41 N4          3.8940   -2.2510    1.4170 n         1 MOL     -0.466081
     42 C13         2.8150   -2.5050    0.4550 c3        1 MOL      0.069202
     43 C14         3.3570   -2.9720   -0.9090 c         1 MOL      0.538239
     44 O6          4.3100   -2.3730   -1.4290 o         1 MOL     -0.474574
     45 C15         1.8170   -1.3580    0.3800 c3        1 MOL     -0.027630
     46 C16         0.6100   -1.5470   -0.5750 c         1 MOL      0.314422
     47 O7          0.8160   -1.4200   -1.8460 o         1 MOL     -0.485582
     48 O8         -0.4430   -2.0370   -0.1120 o         1 MOL     -0.485582
     49 H21         4.7320   -1.7540    1.1800 hn        1 MOL      0.354737
     50 H22         2.2150   -3.3380    0.8360 h1        1 MOL      0.074465
     51 H23         2.3640   -0.4250    0.2430 hc        1 MOL      0.019219
     52 H24         1.3690   -1.2600    1.3740 hc        1 MOL      0.019219
     53 N5          2.6660   -3.9670   -1.5320 n         1 MOL     -0.485146
     54 C17         3.1060   -4.4540   -2.8690 c3        1 MOL     -0.135050
     55 C18         3.1300   -3.3570   -4.0130 c         1 MOL      0.477762
     56 O9          3.8290   -3.5870   -4.9940 o         1 MOL     -0.564502
     57 H25         1.7820   -4.2200   -1.1120 hn        1 MOL      0.315096
     58 H26         2.4880   -5.2760   -3.2330 h1        1 MOL      0.123772
     59 H27         4.1300   -4.8120   -2.7080 h1        1 MOL      0.123772
     60 N6          2.4700   -2.2140   -3.9500 n         1 MOL     -0.047076
     61 C19         2.6310   -1.0020   -4.8560 c3        1 MOL     -0.091217
     62 C20         3.0290    0.2830   -4.0990 c         1 MOL      0.464393
     63 O10         3.4660    1.2950   -4.7040 o         1 MOL     -0.551288
     64 C21         1.2800   -0.8600   -5.5920 c3        1 MOL     -0.267763
     65 C22         0.1530   -0.2050   -4.8920 c         1 MOL      0.635020
     66 N7          0.2090    1.0960   -4.6510 n         1 MOL     -0.726567
     67 O11        -0.8060   -0.7870   -4.4590 o         1 MOL     -0.546151
     68 H28         1.8330   -2.0770   -3.1820 hn        1 MOL      0.009005
     69 H29         3.4900   -1.1980   -5.4930 h1        1 MOL      0.171735
     70 H30         1.0200   -1.8520   -5.9400 hc        1 MOL      0.094060
     71 H31         1.4170   -0.2410   -6.4780 hc        1 MOL      0.094060
     72 H32         1.1030    1.5520   -4.6650 hn        1 MOL      0.346249
     73 H33        -0.6080    1.5320   -4.2320 hn        1 MOL      0.346249
     74 N8          3.0200    0.2810   -2.7790 n         1 MOL     -0.099893
     75 C23         3.3250    1.4210   -1.9020 c3        1 MOL     -0.075434
     76 C24         2.1980    2.4130   -1.6110 c         1 MOL      0.520905
     77 O12         1.6950    2.9030   -2.6130 o         1 MOL     -0.519785
     78 H34         2.5280   -0.4740   -2.3420 hn        1 MOL      0.026828
     79 H35         4.2580    1.9250   -2.1680 h1        1 MOL      0.095922
     80 H36         3.5670    1.0730   -0.8930 h1        1 MOL      0.095922
     81 N9          1.8390    2.6510   -0.3610 n         1 MOL     -0.374901
     82 C25         0.8220    3.6220    0.0730 c3        1 MOL      0.311878
     83 C26        -0.4070    2.8920    0.7220 c         1 MOL      0.247922
     84 O13        -0.3920    1.6020    0.9410 o         1 MOL     -0.458009
     85 C27         1.3790    4.7160    0.9860 c3        1 MOL     -0.036844
     86 C28         2.3910    5.5810    0.2370 ca        1 MOL     -0.001030
     87 C29         1.9810    6.3960   -0.8170 ca        1 MOL     -0.202994
     88 C30         3.7250    5.4670    0.5340 ca        1 MOL     -0.202994
     89 C31         2.9630    7.2230   -1.4290 ca        1 MOL     -0.120137
     90 C32         4.6900    6.2580   -0.0460 ca        1 MOL     -0.120137
     91 C33         4.3040    7.2080   -0.9910 ca        1 MOL      0.204261
     92 O14         5.3120    7.9270   -1.5910 oh        1 MOL     -0.464587
     93 H37         2.3230    2.1020    0.3450 hn        1 MOL      0.243195
     94 H38         0.5460    4.1870   -0.8240 h1        1 MOL     -0.022524
     95 H39         1.9310    4.2360    1.7900 hc        1 MOL      0.008899
     96 H40         0.5930    5.3290    1.4310 hc        1 MOL      0.008899
     97 H41         0.9750    6.4310   -1.1980 ha        1 MOL      0.132771
     98 H42         4.0590    4.7380    1.2590 ha        1 MOL      0.132771
     99 H43         2.6840    7.9040   -2.2080 ha        1 MOL      0.122735
    100 H44         5.7360    6.0990    0.1890 ha        1 MOL      0.122735
    101 H45         5.0410    8.5330   -2.2900 ho        1 MOL      0.375669
    102 N10        -1.4710    3.5990    0.9580 n         1 MOL     -0.413599
    103 C34        -2.7570    2.9520    1.4430 c3        1 MOL      0.312702
    104 C35        -3.5890    2.3230    0.3210 c         1 MOL      0.240878
    105 O15        -4.0320    1.1610    0.3770 o         1 MOL     -0.470080
    106 C36        -3.4880    4.0250    2.3300 c3        1 MOL      0.078857
    107 C37        -2.6270    4.5230    3.4420 c3        1 MOL      0.031954
    108 C38        -4.8490    3.5340    2.7280 c3        1 MOL     -0.312590
    109 C39        -2.4510    3.5040    4.5540 c3        1 MOL     -0.165153
    110 H46        -1.4600    4.5960    0.8260 hn        1 MOL      0.275115
    111 H47        -2.4560    2.0710    1.9990 h1        1 MOL      0.065123
    112 H48        -3.5910    4.9150    1.7200 hc        1 MOL     -0.030205
    113 H49        -3.0920    5.4020    3.8870 hc        1 MOL      0.005210
    114 H50        -1.7090    4.8360    2.9300 hc        1 MOL      0.005210
    115 H51        -4.8190    2.4830    3.0070 hc        1 MOL      0.089346
    116 H52        -5.2010    4.0110    3.6430 hc        1 MOL      0.089346
    117 H53        -5.6200    3.7430    1.9920 hc        1 MOL      0.089346
    118 H54        -3.3790    3.4690    5.1280 hc        1 MOL      0.046782
    119 H55        -2.1380    2.5030    4.2390 hc        1 MOL      0.046782
    120 H56        -1.6260    3.8610    5.1690 hc        1 MOL      0.046782
    121 N11        -3.8300    3.0930   -0.7530 n         1 MOL     -0.436010
    122 C40        -4.5460    2.6290   -1.9390 c3        1 MOL      0.108721
    123 C41        -5.9970    2.0860   -1.6070 c         1 MOL      0.296899
    124 O16        -6.4290    1.1800   -2.2330 o         1 MOL     -0.461026
    125 C42        -4.7120    3.7010   -3.0550 c3        1 MOL      0.301484
    126 O17        -3.5140    4.4220   -3.3710 oh        1 MOL     -0.612632
    127 H57        -3.6690    4.0720   -0.5880 hn        1 MOL      0.242519
    128 H58        -4.0530    1.8100   -2.4490 h1        1 MOL      0.125909
    129 H59        -5.4960    4.3880   -2.7320 h1        1 MOL     -0.019501
    130 H60        -5.0740    3.1470   -3.9280 h1        1 MOL     -0.019501
    131 H61        -3.7780    5.3460   -3.3280 ho        1 MOL      0.400811
    132 N12        -6.6130    2.7450   -0.6130 n         1 MOL     -0.160683
    133 C43        -7.9120    2.4380   -0.0370 c3        1 MOL      0.100479
    134 C44        -8.3210    0.8620   -0.0460 c         1 MOL      0.518972
    135 O18        -9.4010    0.4160   -0.5180 o         1 MOL     -0.488105
    136 C45        -8.9800    3.3430   -0.6270 c3        1 MOL     -0.321692
    137 H62        -6.1580    3.6010   -0.3380 hn        1 MOL      0.221411
    138 H63        -7.8570    2.6960    1.0190 h1        1 MOL      0.032842
    139 H64        -9.0970    3.1210   -1.6830 hc        1 MOL      0.091953
    140 H65        -9.9690    3.1580   -0.1940 hc        1 MOL      0.091953
    141 H66        -8.7030    4.3940   -0.6220 hc        1 MOL      0.091953
    142 N13        -7.3340   -0.0080    0.3580 n         1 MOL     -0.505111
    143 C46        -7.4330   -1.4400    0.4320 c3        1 MOL      0.237324
    144 C47        -6.4210   -1.9960    1.4870 c         1 MOL      0.430753
    145 O19        -5.5660   -1.3240    1.9830 o         1 MOL     -0.388464
    146 C48        -7.0860   -1.9050   -0.9630 c3        1 MOL     -0.394072
    147 H67        -6.3690    0.2730    0.5100 hn        1 MOL      0.189910
    148 H68        -8.4300   -1.7240    0.7880 h1        1 MOL      0.044415
    149 H69        -7.0920   -2.9820   -1.1300 hc        1 MOL      0.116678
    150 H70        -7.7410   -1.4270   -1.6890 hc        1 MOL      0.116678
    151 H71        -6.0590   -1.6650   -1.2550 hc        1 MOL      0.116678
    152 N14        -6.6600   -3.2710    1.8720 n         1 MOL     -0.438253
    153 C49        -5.7800   -4.0800    2.7680 c3        1 MOL     -0.281445
    154 C50        -5.4020   -3.4270    4.1110 c         1 MOL      0.546439
    155 O20        -4.2700   -3.4990    4.5780 o         1 MOL     -0.483197
    156 C51        -4.4880   -4.3870    1.9680 c3        1 MOL      0.294572
    157 C52        -4.6110   -4.7940    0.4790 c3        1 MOL     -0.038581
    158 C53        -3.1920   -5.0000   -0.1220 c         1 MOL      0.549355
    159 O21        -2.9090   -4.3230   -1.1250 o         1 MOL     -0.662080
    160 O22        -2.3320   -5.7000    0.4160 o         1 MOL     -0.662080
    161 H72        -7.4760   -3.7260    1.4830 hn        1 MOL      0.300829
    162 H73        -6.0770   -5.1210    2.8750 h1        1 MOL      0.155281
    163 H74        -3.9950   -5.2020    2.4900 hc        1 MOL     -0.023292
    164 H75        -3.8840   -3.4790    1.9890 hc        1 MOL     -0.023292
    165 H76        -5.0080   -3.9670   -0.1140 hc        1 MOL     -0.038750
    166 H77        -5.2100   -5.6960    0.4020 hc        1 MOL     -0.038750
    167 N15        -6.3730   -2.6900    4.6600 n         1 MOL     -0.448405
    168 C54        -6.1610   -1.5460    5.6970 c3        1 MOL     -0.142189
    169 H78        -7.1290   -1.1540    6.0070 h1        1 MOL      0.100653
    170 H79        -5.6330   -1.9370    6.5660 h1        1 MOL      0.100653
    171 H80        -5.5740   -0.7480    5.2430 h1        1 MOL      0.100653
    172 H81        -7.2420   -2.6340    4.1520 hn        1 MOL      0.282347
    173 Ca1        -1.7810   -2.1390   -2.2760 Ca        1 MOL      1.750537
    174 O23        -0.3340   -4.3520   -2.1810 oh        1 MOL     -0.905430
    175 H82         0.1920   -4.9770   -2.6800 ho        1 MOL      0.440427
    176 H83        -0.9020   -4.9040   -1.6490 ho        1 MOL      0.440427
    177 O24        -4.1640   -1.5230   -3.5650 oh        1 MOL     -0.905430
    178 H84        -4.5890   -0.7910   -3.1210 ho        1 MOL      0.440427
    179 H85        -4.8250   -1.8620   -4.1690 ho        1 MOL      0.440427
    180 O25        -3.4160   -1.4410   -0.2570 oh        1 MOL     -0.905430
    181 H86        -3.5760   -1.7670    0.6290 ho        1 MOL      0.440427
    182 H87        -3.8700   -0.5950   -0.2750 ho        1 MOL      0.440427
    183 O26        -2.2890   -3.5990   -4.4710 oh        1 MOL     -0.905430
    184 H88        -2.4630   -4.5380   -4.5220 ho        1 MOL      0.440427
    185 H89        -2.7440   -3.2330   -5.2250 ho        1 MOL      0.440427
    186 O27        -1.7330    0.4120   -1.6510 oh        1 MOL     -0.905430
    187 H90        -1.4520    0.5710   -0.7540 ho        1 MOL      0.440427
    188 H91        -1.5120    1.2220   -2.1140 ho        1 MOL      0.440427
@<TRIPOS>BOND
     1    1    2 1   
     2    1    4 1   
     3    1    5 1   
     4    1    6 1   
     5    2    3 2   
     6    2    7 1   
     7    7    8 1   
     8    7   15 1   
     9    8    9 1   
    10    8   11 1   
    11    8   16 1   
    12    9   10 2   
    13    9   19 1   
    14   11   12 1   
    15   11   17 1   
    16   11   18 1   
    17   12   13 1   
    18   12   14 1   
    19   19   20 1   
    20   19   28 1   
    21   20   21 1   
    22   20   23 1   
    23   20   29 1   
    24   21   22 2   
    25   21   41 1   
    26   23   24 1   
    27   23   30 1   
    28   23   31 1   
    29   24   25 1   
    30   24   32 1   
    31   24   33 1   
    32   25   26 1   
    33   25   34 1   
    34   25   35 1   
    35   26   27 1   
    36   26   36 1   
    37   26   37 1   
    38   27   38 1   
    39   27   39 1   
    40   27   40 1   
    41   41   42 1   
    42   41   49 1   
    43   42   43 1   
    44   42   45 1   
    45   42   50 1   
    46   43   44 2   
    47   43   53 1   
    48   45   46 1   
    49   45   51 1   
    50   45   52 1   
    51   46   47 1   
    52   46   48 1   
    53   53   54 1   
    54   53   57 1   
    55   54   55 1   
    56   54   58 1   
    57   54   59 1   
    58   55   56 2   
    59   55   60 1   
    60   60   61 1   
    61   60   68 1   
    62   61   62 1   
    63   61   64 1   
    64   61   69 1   
    65   62   63 2   
    66   62   74 1   
    67   64   65 1   
    68   64   70 1   
    69   64   71 1   
    70   65   66 1   
    71   65   67 2   
    72   66   72 1   
    73   66   73 1   
    74   74   75 1   
    75   74   78 1   
    76   75   76 1   
    77   75   79 1   
    78   75   80 1   
    79   76   77 2   
    80   76   81 1   
    81   81   82 1   
    82   81   93 1   
    83   82   83 1   
    84   82   85 1   
    85   82   94 1   
    86   83   84 2   
    87   83  102 1   
    88   85   86 1   
    89   85   95 1   
    90   85   96 1   
    91   86   87 ar  
    92   86   88 ar  
    93   87   89 ar  
    94   87   97 1   
    95   88   90 ar  
    96   88   98 1   
    97   89   91 ar  
    98   89   99 1   
    99   90   91 ar  
   100   90  100 1   
   101   91   92 1   
   102   92  101 1   
   103  102  103 1   
   104  102  110 1   
   105  103  104 1   
   106  103  106 1   
   107  103  111 1   
   108  104  105 2   
   109  104  121 1   
   110  106  107 1   
   111  106  108 1   
   112  106  112 1   
   113  107  109 1   
   114  107  113 1   
   115  107  114 1   
   116  108  115 1   
   117  108  116 1   
   118  108  117 1   
   119  109  118 1   
   120  109  119 1   
   121  109  120 1   
   122  121  122 1   
   123  121  127 1   
   124  122  123 1   
   125  122  125 1   
   126  122  128 1   
   127  123  124 2   
   128  123  132 1   
   129  125  126 1   
   130  125  129 1   
   131  125  130 1   
   132  126  131 1   
   133  132  133 1   
   134  132  137 1   
   135  133  134 1   
   136  133  136 1   
   137  133  138 1   
   138  134  135 2   
   139  134  142 1   
   140  136  139 1   
   141  136  140 1   
   142  136  141 1   
   143  142  143 1   
   144  142  147 1   
   145  143  144 1   
   146  143  146 1   
   147  143  148 1   
   148  144  145 2   
   149  144  152 1   
   150  146  149 1   
   151  146  150 1   
   152  146  151 1   
   153  152  153 1   
   154  152  161 1   
   155  153  154 1   
   156  153  156 1   
   157  153  162 1   
   158  154  155 2   
   159  154  167 1   
   160  156  157 1   
   161  156  163 1   
   162  156  164 1   
   163  157  158 1   
   164  157  165 1   
   165  157  166 1   
   166  158  159 1   
   167  158  160 1   
   168  167  168 1   
   169  167  172 1   
   170  168  169 1   
   171  168  170 1   
   172  168  171 1   
   173  174  175 1   
   174  174  176 1   
   175  177  178 1   
   176  177  179 1   
   177  180  181 1   
   178  180  182 1   
   179  183  184 1   
   180  183  185 1   
   181  186  187 1   
   182  186  188 1   
@<TRIPOS>SUBSTRUCTURE
     1 MOL         1 TEMP              0 ****  ****    0 ROOT
