@<TRIPOS>MOLECULE
MOL
  179   176     1     0     0
SMALL
resp


@<TRIPOS>ATOM
      1 C1          1.3700   -3.9340    6.2200 c3        1 MOL     -0.471925
      2 C2          1.5870   -3.9770    4.6750 c         1 MOL      0.714015
      3 O1          0.8490   -4.6000    3.8920 o         1 MOL     -0.581825
      4 H1          1.1160   -4.9320    6.5790 hc        1 MOL      0.133607
      5 H2          2.2840   -3.5960    6.7070 hc        1 MOL      0.133607
      6 H3          0.5570   -3.2460    6.4550 hc        1 MOL      0.133607
      7 N1          2.7190   -3.4000    4.2720 n         1 MOL     -0.483020
      8 C3          2.8030   -3.0160    2.8560 c3        1 MOL     -0.000970
      9 C4          3.1400   -4.2350    1.9550 c         1 MOL      0.494159
     10 O2          4.0210   -4.9860    2.3190 o         1 MOL     -0.527105
     11 C5          3.8120   -1.8440    2.7630 c3        1 MOL     -0.020921
     12 C6          3.7420   -1.0390    1.3760 c         1 MOL      0.589334
     13 O3          4.1100    0.1880    1.2950 o         1 MOL     -0.681471
     14 O4          3.2980   -1.6330    0.3820 o         1 MOL     -0.681471
     15 H4          3.3750   -3.1100    4.9820 hn        1 MOL      0.309164
     16 H5          1.7990   -2.6680    2.5910 h1        1 MOL      0.012758
     17 H6          4.8710   -2.0440    2.9640 hc        1 MOL      0.029829
     18 H7          3.4730   -1.0990    3.4780 hc        1 MOL      0.029829
     19 N2          2.4740   -4.3050    0.8200 n         1 MOL     -0.157782
     20 C7          2.5790   -5.4060   -0.1230 c3        1 MOL     -0.130626
     21 C8          3.6440   -5.1940   -1.1910 c         1 MOL      0.479875
     22 O5          4.1150   -6.1380   -1.8080 o         1 MOL     -0.547293
     23 C9          1.2230   -5.5440   -0.8600 c3        1 MOL     -0.017923
     24 C10         0.6760   -4.3870   -1.6700 c3        1 MOL      0.028521
     25 C11        -0.5330   -4.8020   -2.4190 c3        1 MOL     -0.072821
     26 C12        -0.9340   -3.6200   -3.3800 c3        1 MOL      0.082292
     27 N3         -2.3560   -3.6630   -3.6500 n4        1 MOL     -0.462690
     28 H8          1.8940   -3.5540    0.4690 hn        1 MOL      0.199111
     29 H9          2.7710   -6.3410    0.3990 h1        1 MOL      0.140683
     30 H10         0.5320   -5.6530   -0.0270 hc        1 MOL      0.021684
     31 H11         1.2020   -6.5040   -1.3770 hc        1 MOL      0.021684
     32 H12         1.3710   -4.1870   -2.4900 hc        1 MOL      0.037601
     33 H13         0.5010   -3.5090   -1.0470 hc        1 MOL      0.037601
     34 H14        -1.3480   -5.0400   -1.7400 hc        1 MOL      0.052864
     35 H15        -0.3600   -5.6520   -3.0800 hc        1 MOL      0.052864
     36 H16        -0.3110   -3.4090   -4.2400 hx        1 MOL      0.052822
     37 H17        -0.8480   -2.7910   -2.6860 hx        1 MOL      0.052822
     38 H18        -2.8230   -3.9310   -2.7960 hn        1 MOL      0.324376
     39 H19        -2.6310   -2.7290   -3.8980 hn        1 MOL      0.324376
     40 H20        -2.4980   -4.3140   -4.4130 hn        1 MOL      0.324376
     41 N4          4.1310   -3.9680   -1.3850 n         1 MOL     -0.254402
     42 C13         5.3260   -3.6780   -2.2360 c3        1 MOL      0.181229
     43 C14         6.4690   -3.0120   -1.4680 c         1 MOL      0.323905
     44 O6          7.6620   -3.1940   -1.7290 o         1 MOL     -0.524480
     45 C15         4.9620   -2.7220   -3.3070 c3        1 MOL     -0.297248
     46 C16         4.1730   -1.4710   -2.8900 c         1 MOL      0.887071
     47 O7          2.9250   -1.4370   -2.8410 o         1 MOL     -0.840778
     48 O8          4.6350   -0.4790   -2.3910 o         1 MOL     -0.840778
     49 H21         3.8260   -3.1360   -0.9090 hn        1 MOL      0.118384
     50 H22         5.6960   -4.5550   -2.7610 h1        1 MOL      0.091505
     51 H23         4.2710   -3.2710   -3.9500 hc        1 MOL      0.071528
     52 H24         5.7980   -2.3630   -3.8990 hc        1 MOL      0.071528
     53 N5          6.1000   -2.2300   -0.4540 n         1 MOL     -0.044103
     54 C17         7.0820   -1.5590    0.4320 c3        1 MOL     -0.323127
     55 C18         7.2730   -0.0600    0.1790 c         1 MOL      0.519326
     56 O9          8.1560    0.5020    0.8850 o         1 MOL     -0.569448
     57 H25         5.1120   -2.0700   -0.3350 hn        1 MOL      0.043532
     58 H26         8.0380   -1.9910    0.1420 h1        1 MOL      0.168877
     59 H27         6.8400   -1.7270    1.4820 h1        1 MOL      0.168877
     60 N6          6.5630    0.5450   -0.7370 n         1 MOL     -0.177692
     61 C19         6.7530    2.0050   -1.1240 c3        1 MOL      0.034146
     62 C20         5.5070    2.8630   -1.1350 c         1 MOL      0.630101
     63 O10         4.3960    2.2630   -1.1290 o         1 MOL     -0.626210
     64 C21         7.2740    1.9810   -2.5750 c3        1 MOL     -0.222040
     65 C22         8.4570    1.1840   -2.9130 c         1 MOL      0.724927
     66 N7          8.3610    0.4030   -3.9290 n         1 MOL     -0.857130
     67 O11         9.4030    1.2260   -2.1680 o         1 MOL     -0.559871
     68 H28         5.9410    0.0050   -1.3210 hn        1 MOL      0.262355
     69 H29         7.3710    2.5710   -0.4350 h1        1 MOL      0.052387
     70 H30         7.5930    3.0030   -2.7360 hc        1 MOL      0.031880
     71 H31         6.4840    1.6900   -3.2750 hc        1 MOL      0.031880
     72 H32         7.4880    0.3320   -4.4340 hn        1 MOL      0.394126
     73 H33         9.1160   -0.2670   -3.9710 hn        1 MOL      0.394126
     74 N8          5.6960    4.2050   -1.0700 n         1 MOL     -0.413210
     75 C23         4.5550    5.0800   -1.0940 c3        1 MOL     -0.321684
     76 C24         3.6640    5.1040    0.1970 c         1 MOL      0.609910
     77 O12         4.1790    5.0080    1.3490 o         1 MOL     -0.506808
     78 H34         6.6230    4.5930   -0.9590 hn        1 MOL      0.370914
     79 H35         3.9510    4.9600   -1.9900 h1        1 MOL      0.141708
     80 H36         5.0140    6.0660   -1.0840 h1        1 MOL      0.141708
     81 N9          2.3430    5.1100   -0.0470 n         1 MOL     -0.653145
     82 C25         1.2940    4.8130    0.9780 c3        1 MOL      0.364918
     83 C26         1.2540    3.3290    1.2220 c         1 MOL      0.424445
     84 O13         2.0850    2.5030    0.7670 o         1 MOL     -0.357159
     85 C27         0.0200    5.3580    0.3190 c3        1 MOL     -0.092128
     86 C28        -0.0590    6.8290    0.0700 ca        1 MOL      0.005795
     87 C29        -0.6980    7.2890   -1.1300 ca        1 MOL     -0.145092
     88 C30         0.4200    7.7570    1.0030 ca        1 MOL     -0.145092
     89 C31        -0.9760    8.6360   -1.2640 ca        1 MOL     -0.258206
     90 C32         0.1530    9.1250    0.8710 ca        1 MOL     -0.258206
     91 C33        -0.6630    9.6030   -0.2180 ca        1 MOL      0.316585
     92 O14        -1.1440   10.8370   -0.2260 oh        1 MOL     -0.431706
     93 H37         2.1240    5.3980   -0.9940 hn        1 MOL      0.333420
     94 H38         1.3440    5.3400    1.9230 h1        1 MOL      0.054174
     95 H39        -0.9000    5.1170    0.8550 hc        1 MOL      0.028132
     96 H40         0.0270    4.8380   -0.6390 hc        1 MOL      0.028132
     97 H41        -1.0430    6.7450   -1.9980 ha        1 MOL      0.124139
     98 H42         1.0000    7.4130    1.8410 ha        1 MOL      0.124139
     99 H43        -1.4800    8.8700   -2.1960 ha        1 MOL      0.157550
    100 H44         0.4890    9.8080    1.6490 ha        1 MOL      0.157550
    101 H45        -1.6820   11.0790   -0.9830 ho        1 MOL      0.365389
    102 N10         0.2520    2.9820    2.0860 n         1 MOL     -0.736177
    103 C34         0.1120    1.6380    2.7020 c3        1 MOL      0.140784
    104 C35        -0.0250    0.4870    1.6800 c         1 MOL      0.609292
    105 O15         0.8100    0.1620    0.8790 o         1 MOL     -0.467367
    106 C36         1.1770    1.4080    3.8170 c3        1 MOL      0.040696
    107 C37         1.0230   -0.0020    4.4860 c3        1 MOL     -0.059594
    108 C38         1.1240    2.5570    4.7960 c3        1 MOL     -0.231918
    109 C39        -0.3520   -0.1570    5.2610 c3        1 MOL     -0.200758
    110 H46        -0.2560    3.7520    2.5120 hn        1 MOL      0.361872
    111 H47        -0.8570    1.6130    3.2130 h1        1 MOL      0.056948
    112 H48         2.1640    1.3920    3.3520 hc        1 MOL      0.067109
    113 H49         1.7520   -0.3480    5.2100 hc        1 MOL      0.048050
    114 H50         1.0590   -0.7550    3.6960 hc        1 MOL      0.048050
    115 H51         1.4570    3.4810    4.3200 hc        1 MOL      0.075916
    116 H52         0.1360    2.8060    5.1910 hc        1 MOL      0.075916
    117 H53         1.8250    2.3820    5.6160 hc        1 MOL      0.075916
    118 H54        -1.2460   -0.1820    4.6340 hc        1 MOL      0.043531
    119 H55        -0.3700   -1.1100    5.7820 hc        1 MOL      0.043531
    120 H56        -0.3900    0.6220    6.0350 hc        1 MOL      0.043531
    121 N11        -1.1960   -0.1850    1.7020 n         1 MOL     -0.559571
    122 C40        -1.3880   -1.4970    1.1500 c3        1 MOL      0.099934
    123 C41        -2.8120   -1.8270    0.5890 c         1 MOL      0.595375
    124 O16        -2.8290   -2.4920   -0.4940 o         1 MOL     -0.568478
    125 C42        -0.9020   -2.5080    2.1840 c3        1 MOL      0.189944
    126 O17        -0.2870   -3.5900    1.5270 oh        1 MOL     -0.621510
    127 H57        -1.9770    0.3320    2.1020 hn        1 MOL      0.273989
    128 H58        -0.7530   -1.5250    0.2690 h1        1 MOL      0.084961
    129 H59        -1.7290   -2.8380    2.8100 h1        1 MOL      0.004058
    130 H60        -0.1470   -1.9800    2.7620 h1        1 MOL      0.004058
    131 H61         0.2800   -3.9900    2.1840 ho        1 MOL      0.404308
    132 N12        -3.8750   -1.3480    1.1310 n         1 MOL     -0.568979
    133 C43        -5.2260   -1.3730    0.5650 c3        1 MOL      0.199756
    134 C44        -5.2860   -0.4030   -0.6180 c         1 MOL      0.583954
    135 O18        -4.4160    0.4730   -0.6830 o         1 MOL     -0.581562
    136 C45        -6.3190   -1.2940    1.6510 c3        1 MOL     -0.251204
    137 H62        -3.7780   -0.8940    2.0290 hn        1 MOL      0.321763
    138 H63        -5.3640   -2.3360    0.0850 h1        1 MOL      0.059131
    139 H64        -7.3060   -1.6860    1.3790 hc        1 MOL      0.093106
    140 H65        -6.1080   -1.8600    2.5600 hc        1 MOL      0.093106
    141 H66        -6.4690   -0.2700    1.9820 hc        1 MOL      0.093106
    142 N13        -6.2260   -0.4580   -1.5700 n         1 MOL     -0.665744
    143 C46        -7.3940   -1.3240   -1.5970 c3        1 MOL      0.296831
    144 C47        -8.4880   -0.6150   -2.4260 c         1 MOL      0.410732
    145 O19        -8.2960   -0.1520   -3.5390 o         1 MOL     -0.513383
    146 C48        -7.0530   -2.6580   -2.1800 c3        1 MOL     -0.321819
    147 H67        -6.2200    0.3670   -2.1470 hn        1 MOL      0.353711
    148 H68        -7.7050   -1.5900   -0.5860 h1        1 MOL     -0.014301
    149 H69        -6.6300   -2.4230   -3.1630 hc        1 MOL      0.095812
    150 H70        -6.3480   -3.2720   -1.6100 hc        1 MOL      0.095812
    151 H71        -7.9010   -3.3200   -2.3430 hc        1 MOL      0.095812
    152 N14        -9.7590   -0.5990   -1.9690 n         1 MOL     -0.404890
    153 C49       -10.1510   -0.9380   -0.5600 c3        1 MOL     -0.022290
    154 C50        -9.6790    0.0810    0.5430 c         1 MOL      0.562061
    155 O20        -9.3960   -0.2140    1.6960 o         1 MOL     -0.529913
    156 C51       -11.6420   -1.1310   -0.4440 c3        1 MOL     -0.266956
    157 C52       -12.6460    0.0460   -0.7160 c3        1 MOL     -0.046113
    158 C53       -14.0930   -0.3970   -0.8060 c         1 MOL      0.640965
    159 O21       -14.7580   -0.0390   -1.7990 o         1 MOL     -0.649647
    160 O22       -14.6750   -0.8560    0.2200 o         1 MOL     -0.649647
    161 H72       -10.3860   -0.1560   -2.6220 hn        1 MOL      0.325136
    162 H73        -9.6530   -1.8800   -0.3020 h1        1 MOL      0.086026
    163 H74       -11.7850   -1.4730    0.5810 hc        1 MOL      0.094579
    164 H75       -11.8230   -2.0290   -1.0310 hc        1 MOL      0.094579
    165 H76       -12.3640    0.5460   -1.6420 hc        1 MOL      0.004132
    166 H77       -12.4320    0.8450   -0.0120 hc        1 MOL      0.004132
    167 N15        -9.4670    1.3150    0.0730 n         1 MOL     -0.280346
    168 C54        -8.7590    2.3690    0.8240 c3        1 MOL     -0.154131
    169 H78        -8.3750    3.1150    0.1270 h1        1 MOL      0.085968
    170 H79        -9.4490    2.8450    1.5210 h1        1 MOL      0.085968
    171 H80        -7.9290    1.9290    1.3770 h1        1 MOL      0.085968
    172 H81        -9.6990    1.5190   -0.8950 hn        1 MOL      0.245169
    173 Ca1         2.4740    0.4660   -1.0380 Ca        1 MOL      1.791622
    174 O23         0.4110    2.4560   -1.6260 oh        1 MOL     -0.916456
    175 O24         0.2460   -0.7180   -2.0580 oh        1 MOL     -0.916456
    176 H82         0.2150    3.2260   -2.1670 ho        1 MOL      0.426583
    177 H83         0.3310   -1.0480   -2.9540 ho        1 MOL      0.426583
    178 H84        -0.3810    1.9260   -1.6740 ho        1 MOL      0.426583
    179 H85        -0.5750   -0.2330   -2.0500 ho        1 MOL      0.426583
@<TRIPOS>BOND
     1    1    2 1   
     2    1    4 1   
     3    1    5 1   
     4    1    6 1   
     5    2    3 2   
     6    2    7 1   
     7    7    8 1   
     8    7   15 1   
     9    8    9 1   
    10    8   11 1   
    11    8   16 1   
    12    9   10 2   
    13    9   19 1   
    14   11   12 1   
    15   11   17 1   
    16   11   18 1   
    17   12   13 1   
    18   12   14 1   
    19   19   20 1   
    20   19   28 1   
    21   20   21 1   
    22   20   23 1   
    23   20   29 1   
    24   21   22 2   
    25   21   41 1   
    26   23   24 1   
    27   23   30 1   
    28   23   31 1   
    29   24   25 1   
    30   24   32 1   
    31   24   33 1   
    32   25   26 1   
    33   25   34 1   
    34   25   35 1   
    35   26   27 1   
    36   26   36 1   
    37   26   37 1   
    38   27   38 1   
    39   27   39 1   
    40   27   40 1   
    41   41   42 1   
    42   41   49 1   
    43   42   43 1   
    44   42   45 1   
    45   42   50 1   
    46   43   44 2   
    47   43   53 1   
    48   45   46 1   
    49   45   51 1   
    50   45   52 1   
    51   46   47 1   
    52   46   48 1   
    53   53   54 1   
    54   53   57 1   
    55   54   55 1   
    56   54   58 1   
    57   54   59 1   
    58   55   56 2   
    59   55   60 1   
    60   60   61 1   
    61   60   68 1   
    62   61   62 1   
    63   61   64 1   
    64   61   69 1   
    65   62   63 2   
    66   62   74 1   
    67   64   65 1   
    68   64   70 1   
    69   64   71 1   
    70   65   66 1   
    71   65   67 2   
    72   66   72 1   
    73   66   73 1   
    74   74   75 1   
    75   74   78 1   
    76   75   76 1   
    77   75   79 1   
    78   75   80 1   
    79   76   77 2   
    80   76   81 1   
    81   81   82 1   
    82   81   93 1   
    83   82   83 1   
    84   82   85 1   
    85   82   94 1   
    86   83   84 2   
    87   83  102 1   
    88   85   86 1   
    89   85   95 1   
    90   85   96 1   
    91   86   87 ar  
    92   86   88 ar  
    93   87   89 ar  
    94   87   97 1   
    95   88   90 ar  
    96   88   98 1   
    97   89   91 ar  
    98   89   99 1   
    99   90   91 ar  
   100   90  100 1   
   101   91   92 1   
   102   92  101 1   
   103  102  103 1   
   104  102  110 1   
   105  103  104 1   
   106  103  106 1   
   107  103  111 1   
   108  104  105 2   
   109  104  121 1   
   110  106  107 1   
   111  106  108 1   
   112  106  112 1   
   113  107  109 1   
   114  107  113 1   
   115  107  114 1   
   116  108  115 1   
   117  108  116 1   
   118  108  117 1   
   119  109  118 1   
   120  109  119 1   
   121  109  120 1   
   122  121  122 1   
   123  121  127 1   
   124  122  123 1   
   125  122  125 1   
   126  122  128 1   
   127  123  124 2   
   128  123  132 1   
   129  125  126 1   
   130  125  129 1   
   131  125  130 1   
   132  126  131 1   
   133  132  133 1   
   134  132  137 1   
   135  133  134 1   
   136  133  136 1   
   137  133  138 1   
   138  134  135 2   
   139  134  142 1   
   140  136  139 1   
   141  136  140 1   
   142  136  141 1   
   143  142  143 1   
   144  142  147 1   
   145  143  144 1   
   146  143  146 1   
   147  143  148 1   
   148  144  145 2   
   149  144  152 1   
   150  146  149 1   
   151  146  150 1   
   152  146  151 1   
   153  152  153 1   
   154  152  161 1   
   155  153  154 1   
   156  153  156 1   
   157  153  162 1   
   158  154  155 2   
   159  154  167 1   
   160  156  157 1   
   161  156  163 1   
   162  156  164 1   
   163  157  158 1   
   164  157  165 1   
   165  157  166 1   
   166  158  159 1   
   167  158  160 1   
   168  167  168 1   
   169  167  172 1   
   170  168  169 1   
   171  168  170 1   
   172  168  171 1   
   173  174  176 1   
   174  174  178 1   
   175  175  177 1   
   176  175  179 1   
@<TRIPOS>SUBSTRUCTURE
     1 MOL         1 TEMP              0 ****  ****    0 ROOT
