@<TRIPOS>MOLECULE
MOL
  198   191     1     0     0
SMALL
resp


@<TRIPOS>ATOM
      1 C1         -4.7910   -4.3630    2.4420 c3        1 MOL     -0.325588
      2 C2         -3.6610   -4.2660    1.4750 c         1 MOL      0.605345
      3 O1         -3.0200   -3.2270    1.4770 o         1 MOL     -0.463052
      4 H1         -5.6990   -3.9790    1.9780 hc        1 MOL      0.073841
      5 H2         -4.9410   -5.4060    2.7230 hc        1 MOL      0.073841
      6 H3         -4.5620   -3.7770    3.3310 hc        1 MOL      0.073841
      7 N1         -3.5550   -5.2640    0.5130 n         1 MOL     -0.595553
      8 C3         -2.7850   -5.2180   -0.7240 c3        1 MOL     -0.109379
      9 C4         -1.2670   -4.9370   -0.4590 c         1 MOL      0.706149
     10 O2         -0.4420   -4.4730   -1.3140 o         1 MOL     -0.593165
     11 C5         -3.5310   -4.3900   -1.7170 c3        1 MOL     -0.245854
     12 C6         -5.0890   -4.4580   -1.5820 c         1 MOL      0.971925
     13 O3         -5.7290   -5.5010   -1.8550 o         1 MOL     -0.797837
     14 O4         -5.7010   -3.4420   -1.2550 o         1 MOL     -0.797837
     15 H4         -4.2480   -5.9900    0.6160 hn        1 MOL      0.316527
     16 H5         -2.7300   -6.2310   -1.1270 h1        1 MOL      0.146916
     17 H6         -3.3250   -4.8000   -2.7040 hc        1 MOL      0.086485
     18 H7         -3.2430   -3.3370   -1.7920 hc        1 MOL      0.086485
     19 N2         -0.8350   -5.1720    0.7840 n         1 MOL     -0.616738
     20 C7          0.5140   -4.9010    1.3010 c3        1 MOL      0.017313
     21 C8          1.5510   -5.8650    0.6970 c         1 MOL      0.571817
     22 O5          1.1540   -6.9810    0.3300 o         1 MOL     -0.573144
     23 C9          0.6120   -4.8940    2.9120 c3        1 MOL      0.131351
     24 C10         0.0880   -6.1400    3.6940 c3        1 MOL      0.110745
     25 C11        -0.2870   -3.7500    3.4600 c3        1 MOL     -0.407618
     26 C12         1.1750   -7.0920    4.0400 c3        1 MOL     -0.024269
     27 H8         -1.5620   -5.4840    1.4160 hn        1 MOL      0.365322
     28 H9          0.7590   -3.8960    0.9270 h1        1 MOL      0.004362
     29 H10         1.6600   -4.7140    3.1690 hc        1 MOL      0.064472
     30 H11        -0.8080   -6.5820    3.2680 hc        1 MOL     -0.045035
     31 H12        -0.0720   -5.7560    4.6940 hc        1 MOL     -0.045035
     32 H13        -1.3330   -3.9140    3.2040 hc        1 MOL      0.106821
     33 H14        -0.1920   -3.6710    4.5380 hc        1 MOL      0.106821
     34 H15         0.0360   -2.7780    3.0700 hc        1 MOL      0.106821
     35 H16         0.7800   -7.8980    4.6670 hc        1 MOL     -0.005008
     36 H17         1.5350   -7.6260    3.1700 hc        1 MOL     -0.005008
     37 H18         2.0490   -6.6630    4.5130 hc        1 MOL     -0.005008
     38 N3          2.7970   -5.4610    0.4360 n         1 MOL     -0.511846
     39 C13         3.4200   -4.1360    0.7830 c3        1 MOL      0.038917
     40 C14         3.5800   -3.4130   -0.5490 c         1 MOL      0.473033
     41 O6          3.9670   -2.2510   -0.5250 o         1 MOL     -0.523539
     42 C15         4.7010   -4.3670    1.5690 c3        1 MOL     -0.198415
     43 C16         5.8770   -5.1800    0.9010 c         1 MOL      0.723871
     44 O7          6.9710   -5.2890    1.5260 o         1 MOL     -0.710743
     45 O8          5.6820   -5.7400   -0.2120 o         1 MOL     -0.710743
     46 H19         3.3530   -6.2090    0.0460 hn        1 MOL      0.291538
     47 H20         2.8460   -3.5190    1.4650 h1        1 MOL      0.067265
     48 H21         4.5000   -4.8800    2.5110 hc        1 MOL      0.038494
     49 H22         5.0890   -3.4030    1.8840 hc        1 MOL      0.038494
     50 N4          3.2350   -4.0150   -1.6770 n         1 MOL     -0.131149
     51 C17         3.3390   -3.3110   -2.9770 c3        1 MOL     -0.338333
     52 C18         4.7270   -2.8400   -3.2850 c         1 MOL      0.617481
     53 O9          5.6150   -3.6260   -3.5580 o         1 MOL     -0.560526
     54 H23         3.0390   -5.0000   -1.5920 hn        1 MOL      0.267205
     55 H24         2.6280   -2.4770   -2.9430 h1        1 MOL      0.117099
     56 H25         3.0300   -4.0380   -3.7200 h1        1 MOL      0.117099
     57 N5          4.9560   -1.5100   -3.2450 n         1 MOL     -0.422369
     58 C19         6.2520   -0.8540   -3.6130 c3        1 MOL      0.013944
     59 C20         7.3140   -0.8530   -2.4710 c         1 MOL      0.430788
     60 O10         8.3700   -0.3650   -2.8060 o         1 MOL     -0.553620
     61 C21         6.0180    0.4990   -4.2500 c3        1 MOL     -0.253496
     62 C22         5.1050    1.4180   -3.4650 c         1 MOL      0.790131
     63 O11         5.2870    1.4450   -2.2400 o         1 MOL     -0.723710
     64 O12         4.2540    2.1410   -4.0230 o         1 MOL     -0.723710
     65 H26         4.2060   -0.8810   -3.0080 hn        1 MOL      0.268431
     66 H27         6.5830   -1.4960   -4.4310 h1        1 MOL      0.097904
     67 H28         5.5630    0.3360   -5.2180 hc        1 MOL      0.045415
     68 H29         6.9320    1.0580   -4.4590 hc        1 MOL      0.045415
     69 N6          6.9880   -1.3290   -1.2790 n         1 MOL     -0.175949
     70 C23         7.8520   -1.1610   -0.1090 c3        1 MOL     -0.290259
     71 C24         7.9860    0.2760    0.3950 c         1 MOL      0.512765
     72 O13         8.6520    0.6050    1.3370 o         1 MOL     -0.564751
     73 H30         6.0140   -1.5760   -1.2080 hn        1 MOL      0.232441
     74 H31         8.8480   -1.4970   -0.4010 h1        1 MOL      0.144191
     75 H32         7.4610   -1.7900    0.7020 h1        1 MOL      0.144191
     76 N7          7.2710    1.2410   -0.2890 n         1 MOL     -0.107083
     77 C25         7.1510    2.6830    0.0960 c3        1 MOL      0.014212
     78 C26         6.4740    3.0440    1.4510 c         1 MOL      0.438193
     79 O14         6.6100    4.1810    1.9150 o         1 MOL     -0.523406
     80 C27         8.5210    3.4200   -0.1540 c3        1 MOL      0.103663
     81 C28         8.9940    3.3490   -1.6240 c3        1 MOL     -0.284978
     82 C29        10.4420    3.8710   -1.7890 c         1 MOL      0.682002
     83 N8         11.4750    3.1690   -1.4450 n         1 MOL     -0.780394
     84 O15        10.6660    4.8240   -2.4970 o         1 MOL     -0.602946
     85 H33         6.7910    0.9990   -1.1460 hn        1 MOL      0.131601
     86 H34         6.3780    3.1160   -0.5430 h1        1 MOL      0.110096
     87 H35         9.3170    2.9990    0.4510 hc        1 MOL     -0.027649
     88 H36         8.4020    4.4450    0.1780 hc        1 MOL     -0.027649
     89 H37         8.3280    3.9250   -2.2660 hc        1 MOL      0.104261
     90 H38         8.9040    2.2830   -1.8440 hc        1 MOL      0.104261
     91 H39        11.3110    2.2370   -1.0970 hn        1 MOL      0.348528
     92 H40        12.4140    3.4800   -1.6740 hn        1 MOL      0.348528
     93 N9          5.7760    2.0650    2.0740 n         1 MOL     -0.227433
     94 C30         5.0760    2.1890    3.3810 c3        1 MOL     -0.068546
     95 C31         3.5960    2.0550    3.3750 c         1 MOL      0.577010
     96 O16         3.0110    2.6580    4.2400 o         1 MOL     -0.567479
     97 C32         5.5970    1.0600    4.2640 c3        1 MOL      0.067634
     98 C33         5.6390   -0.3890    3.6840 c3        1 MOL     -0.160433
     99 C34         7.0250    1.2470    4.8440 c3        1 MOL     -0.160433
    100 H41         5.5740    1.2290    1.5350 hn        1 MOL      0.119593
    101 H42         5.3580    3.1650    3.7810 h1        1 MOL      0.114046
    102 H43         5.0280    0.9030    5.1800 hc        1 MOL      0.012034
    103 H44         6.5080   -0.7050    3.1210 hc        1 MOL      0.039886
    104 H45         5.4530   -1.0520    4.5310 hc        1 MOL      0.039886
    105 H46         4.6530   -0.5150    3.2270 hc        1 MOL      0.039886
    106 H47         7.6240    1.1860    3.9400 hc        1 MOL      0.039886
    107 H48         7.1830    2.1480    5.4390 hc        1 MOL      0.039886
    108 H49         7.2900    0.4220    5.5050 hc        1 MOL      0.039886
    109 N10         2.9710    1.3320    2.4340 n         1 MOL     -0.445053
    110 C35         1.5010    1.3410    2.0950 c3        1 MOL      0.144853
    111 C36         1.2770    2.3440    0.9060 c         1 MOL      0.593435
    112 O17         2.2030    2.8840    0.2330 o         1 MOL     -0.520156
    113 C37         1.0600   -0.1270    1.7300 c3        1 MOL     -0.153026
    114 C38        -0.4350   -0.3630    1.5560 c         1 MOL      0.581082
    115 N11        -0.7360   -1.4510    0.8800 n         1 MOL     -0.650463
    116 O18        -1.2560    0.2840    2.2420 o         1 MOL     -0.552638
    117 H50         3.5460    0.8950    1.7150 hn        1 MOL      0.256972
    118 H51         1.0360    1.7770    2.9800 h1        1 MOL      0.056475
    119 H52         1.5460   -0.7970    2.4420 hc        1 MOL      0.039021
    120 H53         1.5330   -0.3450    0.7700 hc        1 MOL      0.039021
    121 H54        -0.0430   -2.0340    0.4180 hn        1 MOL      0.337850
    122 H55        -1.5850   -1.9060    1.1730 hn        1 MOL      0.337850
    123 N12        -0.0490    2.6340    0.7380 n         1 MOL     -0.487579
    124 C39        -0.6260    3.6630   -0.1720 c3        1 MOL      0.079460
    125 C40        -1.9370    4.3340    0.3210 c         1 MOL      0.685473
    126 O19        -2.5270    3.9580    1.3340 o         1 MOL     -0.581212
    127 C41        -0.6730    3.1160   -1.6430 c3        1 MOL     -0.241912
    128 C42        -1.5430    1.9570   -2.0470 ca        1 MOL      0.231114
    129 C43        -0.9920    0.6230   -2.1330 ca        1 MOL     -0.252127
    130 C44        -2.8660    2.2010   -2.4770 ca        1 MOL     -0.252127
    131 C45        -1.8360   -0.4120   -2.6230 ca        1 MOL     -0.255763
    132 C46        -3.6970    1.1120   -2.8810 ca        1 MOL     -0.255763
    133 C47        -3.1750   -0.1920   -2.9780 ca        1 MOL      0.369993
    134 O20        -3.8810   -1.3290   -3.3270 oh        1 MOL     -0.531953
    135 H56        -0.7420    2.1600    1.3100 hn        1 MOL      0.236693
    136 H57         0.1320    4.4370   -0.0540 h1        1 MOL      0.081748
    137 H58         0.3590    2.8240   -1.8510 hc        1 MOL      0.080496
    138 H59        -0.8950    3.9830   -2.2630 hc        1 MOL      0.080496
    139 H60         0.0000    0.3730   -1.7830 ha        1 MOL      0.187108
    140 H61        -3.2450    3.2120   -2.4590 ha        1 MOL      0.187108
    141 H62        -1.3470   -1.3790   -2.6560 ha        1 MOL      0.155476
    142 H63        -4.7450    1.3300   -3.0230 ha        1 MOL      0.155476
    143 H64        -3.3850   -2.1600   -3.3230 ho        1 MOL      0.352555
    144 N13        -2.3370    5.3070   -0.4830 n         1 MOL     -0.758276
    145 C48        -3.4000    6.3110   -0.1470 c3        1 MOL      0.225982
    146 C49        -4.4800    6.4080   -1.2920 c         1 MOL      0.589641
    147 O21        -4.3790    7.3970   -2.0620 o         1 MOL     -0.553401
    148 C50        -2.8770    7.6640    0.3500 c3        1 MOL      0.127721
    149 C51        -4.0480    8.4760    0.9120 c3        1 MOL     -0.350063
    150 C52        -3.5450    9.8930    1.4360 c         1 MOL      0.715168
    151 O22        -2.7920   10.5750    0.7110 o         1 MOL     -0.681038
    152 O23        -4.0210   10.3760    2.4970 o         1 MOL     -0.681038
    153 H65        -1.7360    5.5140   -1.2650 hn        1 MOL      0.352804
    154 H66        -3.9500    5.8900    0.6980 h1        1 MOL      0.017770
    155 H67        -2.2830    8.2480   -0.3400 hc        1 MOL     -0.003503
    156 H68        -2.1440    7.4670    1.1280 hc        1 MOL     -0.003503
    157 H69        -4.5000    7.9150    1.7210 hc        1 MOL      0.071687
    158 H70        -4.7790    8.6620    0.1260 hc        1 MOL      0.071687
    159 N14        -5.4810    5.5290   -1.3060 n         1 MOL     -0.682306
    160 C53        -5.5480    4.2710   -0.5510 c3        1 MOL      0.184670
    161 C54        -6.0770    4.4060    0.8540 c         1 MOL      0.563332
    162 O24        -6.9860    5.1090    1.1610 o         1 MOL     -0.570630
    163 C55        -6.4260    3.3210   -1.2740 c3        1 MOL     -0.117152
    164 C56        -6.5250    1.8640   -0.7910 c3        1 MOL      0.005176
    165 C57        -7.5980    0.9960   -1.4670 c         1 MOL      0.568692
    166 O25        -8.2550    1.4780   -2.4240 o         1 MOL     -0.643387
    167 O26        -7.8220   -0.1920   -1.0700 o         1 MOL     -0.643387
    168 H71        -6.2990    5.7480   -1.8630 hn        1 MOL      0.351497
    169 H72        -4.5780    3.7720   -0.4630 h1        1 MOL     -0.004674
    170 H73        -6.0380    3.2210   -2.2870 hc        1 MOL      0.051315
    171 H74        -7.4140    3.7840   -1.3310 hc        1 MOL      0.051315
    172 H75        -6.8100    1.9380    0.2640 hc        1 MOL     -0.051218
    173 H76        -5.5790    1.3360   -0.8280 hc        1 MOL     -0.051218
    174 N15        -5.5380    3.5710    1.7560 n         1 MOL     -0.115127
    175 C58        -5.7980    3.5800    3.1950 c3        1 MOL     -0.352347
    176 H77        -6.8710    3.6500    3.3700 h1        1 MOL      0.120595
    177 H78        -5.4180    2.6590    3.6390 h1        1 MOL      0.120595
    178 H79        -5.2990    4.4360    3.6500 h1        1 MOL      0.120595
    179 H80        -4.9930    2.8260    1.3580 hn        1 MOL      0.206262
    180 Ca1        -8.0360   -2.5650   -0.1550 Ca        1 MOL      1.745926
    181 O27        -5.5460   -1.3220    0.5100 oh        1 MOL     -0.848748
    182 H81        -5.2860   -0.4010    0.6040 ho        1 MOL      0.402564
    183 H82        -4.9720   -1.6610   -0.1840 ho        1 MOL      0.402564
    184 O28       -10.3420   -3.8790    0.8990 oh        1 MOL     -0.848748
    185 H83       -10.3400   -4.8120    1.0940 ho        1 MOL      0.402564
    186 H84       -11.2070   -3.5770    1.1690 ho        1 MOL      0.402564
    187 O29        -8.9630   -3.0260   -2.7320 oh        1 MOL     -0.848748
    188 O30        -8.2820   -5.2630   -1.4070 oh        1 MOL     -0.848748
    189 H85        -9.8830   -3.2530   -2.8990 ho        1 MOL      0.402564
    190 H86        -8.6830   -6.1340   -1.4410 ho        1 MOL      0.402564
    191 H87        -8.4720   -3.7940   -3.0200 ho        1 MOL      0.402564
    192 H88        -7.3520   -5.4420   -1.2920 ho        1 MOL      0.402564
    193 O31        -8.3750   -1.4570    2.2520 oh        1 MOL     -0.848748
    194 H89        -7.8810   -1.5470    3.0650 ho        1 MOL      0.402564
    195 H90        -8.7130   -0.5640    2.2730 ho        1 MOL      0.402564
    196 O32       -10.3400   -1.0040   -0.0050 oh        1 MOL     -0.848748
    197 H91       -10.1770   -0.3500   -0.6900 ho        1 MOL      0.402564
    198 H92       -11.0170   -0.6150    0.5420 ho        1 MOL      0.402564
@<TRIPOS>BOND
     1    1    2 1   
     2    1    4 1   
     3    1    5 1   
     4    1    6 1   
     5    2    3 2   
     6    2    7 1   
     7    7    8 1   
     8    7   15 1   
     9    8    9 1   
    10    8   11 1   
    11    8   16 1   
    12    9   10 2   
    13    9   19 1   
    14   11   12 1   
    15   11   17 1   
    16   11   18 1   
    17   12   13 1   
    18   12   14 1   
    19   19   20 1   
    20   19   27 1   
    21   20   21 1   
    22   20   23 1   
    23   20   28 1   
    24   21   22 2   
    25   21   38 1   
    26   23   24 1   
    27   23   25 1   
    28   23   29 1   
    29   24   26 1   
    30   24   30 1   
    31   24   31 1   
    32   25   32 1   
    33   25   33 1   
    34   25   34 1   
    35   26   35 1   
    36   26   36 1   
    37   26   37 1   
    38   38   39 1   
    39   38   46 1   
    40   39   40 1   
    41   39   42 1   
    42   39   47 1   
    43   40   41 2   
    44   40   50 1   
    45   42   43 1   
    46   42   48 1   
    47   42   49 1   
    48   43   44 1   
    49   43   45 1   
    50   50   51 1   
    51   50   54 1   
    52   51   52 1   
    53   51   55 1   
    54   51   56 1   
    55   52   53 2   
    56   52   57 1   
    57   57   58 1   
    58   57   65 1   
    59   58   59 1   
    60   58   61 1   
    61   58   66 1   
    62   59   60 2   
    63   59   69 1   
    64   61   62 1   
    65   61   67 1   
    66   61   68 1   
    67   62   63 1   
    68   62   64 1   
    69   69   70 1   
    70   69   73 1   
    71   70   71 1   
    72   70   74 1   
    73   70   75 1   
    74   71   72 2   
    75   71   76 1   
    76   76   77 1   
    77   76   85 1   
    78   77   78 1   
    79   77   80 1   
    80   77   86 1   
    81   78   79 2   
    82   78   93 1   
    83   80   81 1   
    84   80   87 1   
    85   80   88 1   
    86   81   82 1   
    87   81   89 1   
    88   81   90 1   
    89   82   83 1   
    90   82   84 2   
    91   83   91 1   
    92   83   92 1   
    93   93   94 1   
    94   93  100 1   
    95   94   95 1   
    96   94   97 1   
    97   94  101 1   
    98   95   96 2   
    99   95  109 1   
   100   97   98 1   
   101   97   99 1   
   102   97  102 1   
   103   98  103 1   
   104   98  104 1   
   105   98  105 1   
   106   99  106 1   
   107   99  107 1   
   108   99  108 1   
   109  109  110 1   
   110  109  117 1   
   111  110  111 1   
   112  110  113 1   
   113  110  118 1   
   114  111  112 2   
   115  111  123 1   
   116  113  114 1   
   117  113  119 1   
   118  113  120 1   
   119  114  115 1   
   120  114  116 2   
   121  115  121 1   
   122  115  122 1   
   123  123  124 1   
   124  123  135 1   
   125  124  125 1   
   126  124  127 1   
   127  124  136 1   
   128  125  126 2   
   129  125  144 1   
   130  127  128 1   
   131  127  137 1   
   132  127  138 1   
   133  128  129 ar  
   134  128  130 ar  
   135  129  131 ar  
   136  129  139 1   
   137  130  132 ar  
   138  130  140 1   
   139  131  133 ar  
   140  131  141 1   
   141  132  133 ar  
   142  132  142 1   
   143  133  134 1   
   144  134  143 1   
   145  144  145 1   
   146  144  153 1   
   147  145  146 1   
   148  145  148 1   
   149  145  154 1   
   150  146  147 2   
   151  146  159 1   
   152  148  149 1   
   153  148  155 1   
   154  148  156 1   
   155  149  150 1   
   156  149  157 1   
   157  149  158 1   
   158  150  151 1   
   159  150  152 1   
   160  159  160 1   
   161  159  168 1   
   162  160  161 1   
   163  160  163 1   
   164  160  169 1   
   165  161  162 2   
   166  161  174 1   
   167  163  164 1   
   168  163  170 1   
   169  163  171 1   
   170  164  165 1   
   171  164  172 1   
   172  164  173 1   
   173  165  166 1   
   174  165  167 1   
   175  174  175 1   
   176  174  179 1   
   177  175  176 1   
   178  175  177 1   
   179  175  178 1   
   180  181  182 1   
   181  181  183 1   
   182  184  185 1   
   183  184  186 1   
   184  187  189 1   
   185  187  191 1   
   186  188  190 1   
   187  188  192 1   
   188  193  194 1   
   189  193  195 1   
   190  196  197 1   
   191  196  198 1   
@<TRIPOS>SUBSTRUCTURE
     1 MOL         1 TEMP              0 ****  ****    0 ROOT
