@<TRIPOS>MOLECULE
MOL
  191   184     1     0     0
SMALL
resp


@<TRIPOS>ATOM
      1 C1         -4.4670    1.3640   -3.7770 c3        1 MOL     -0.315077
      2 C2         -5.6620    1.4840   -2.8480 c         1 MOL      0.562794
      3 O1         -5.6870    1.2760   -1.6380 o         1 MOL     -0.492720
      4 H1         -3.5580    1.2490   -3.1860 hc        1 MOL      0.089142
      5 H2         -4.5930    0.4950   -4.4210 hc        1 MOL      0.089142
      6 H3         -4.3910    2.2620   -4.3890 hc        1 MOL      0.089142
      7 N1         -6.8420    1.7900   -3.4900 n         1 MOL     -0.523195
      8 C3         -8.2250    1.8660   -2.7600 c3        1 MOL      0.174355
      9 C4         -8.6350    0.7130   -1.8190 c         1 MOL      0.363516
     10 O2         -9.2880    0.9050   -0.7830 o         1 MOL     -0.439717
     11 C5         -8.3300    3.2580   -2.1010 c3        1 MOL     -0.210764
     12 C6         -9.7110    3.6450   -1.6200 c         1 MOL      0.722710
     13 O3         -9.7440    4.5710   -0.8260 o         1 MOL     -0.655524
     14 O4        -10.7520    3.1910   -2.2250 o         1 MOL     -0.655524
     15 H4         -6.7320    2.0230   -4.4700 hn        1 MOL      0.297500
     16 H5         -9.0050    1.8250   -3.5310 h1        1 MOL      0.023834
     17 H6         -7.9790    3.9380   -2.8760 hc        1 MOL      0.064490
     18 H7         -7.6430    3.2700   -1.2530 hc        1 MOL      0.064490
     19 N2         -8.2260   -0.5210   -2.1500 n         1 MOL     -0.334137
     20 C7         -8.4060   -1.7570   -1.3390 c3        1 MOL      0.139362
     21 C8         -7.2900   -2.0680   -0.3480 c         1 MOL      0.670203
     22 O5         -7.4810   -2.9610    0.4300 o         1 MOL     -0.593943
     23 C9         -8.6130   -3.0000   -2.3240 c3        1 MOL     -0.096444
     24 C10        -9.6550   -4.0070   -1.7240 c3        1 MOL     -0.000690
     25 C11        -9.6560   -5.3320   -2.4120 c3        1 MOL     -0.014911
     26 C12       -10.9600   -5.9460   -1.9970 c3        1 MOL      0.123561
     27 N3        -11.0340   -7.3960   -2.2700 n4        1 MOL     -0.220889
     28 H8         -7.7850   -0.5290   -3.0680 hn        1 MOL      0.172152
     29 H9         -9.2590   -1.5380   -0.6900 h1        1 MOL      0.056854
     30 H10        -7.6450   -3.4730   -2.4960 hc        1 MOL      0.027741
     31 H11        -9.0450   -2.5620   -3.2260 hc        1 MOL      0.027741
     32 H12       -10.5820   -3.4440   -1.8600 hc        1 MOL      0.034104
     33 H13        -9.4700   -4.1160   -0.6600 hc        1 MOL      0.034104
     34 H14        -8.8430   -5.9780   -2.0990 hc        1 MOL      0.017028
     35 H15        -9.6710   -5.2120   -3.4930 hc        1 MOL      0.017028
     36 H16       -11.7990   -5.3480   -2.3490 hx        1 MOL      0.041757
     37 H17       -10.9490   -5.8320   -0.9100 hx        1 MOL      0.041757
     38 H18       -11.9420   -7.7860   -2.0710 hn        1 MOL      0.221545
     39 H19       -10.9280   -7.6130   -3.2480 hn        1 MOL      0.221545
     40 H20       -10.3330   -7.9170   -1.7580 hn        1 MOL      0.221545
     41 N4         -6.2060   -1.2690   -0.3720 n         1 MOL     -0.522358
     42 C13        -4.9700   -1.5930    0.3650 c3        1 MOL     -0.118714
     43 C14        -5.1090   -1.2790    1.8550 c         1 MOL      0.640926
     44 O6         -5.8020   -0.3160    2.2840 o         1 MOL     -0.499972
     45 C15        -3.7980   -0.7680   -0.2450 c3        1 MOL      0.069250
     46 C16        -2.5360   -1.3190    0.3020 c         1 MOL      0.493780
     47 O7         -2.1360   -1.1150    1.4640 o         1 MOL     -0.690076
     48 O8         -1.9480   -2.2370   -0.3460 o         1 MOL     -0.690076
     49 H21        -6.1910   -0.4880   -1.0240 hn        1 MOL      0.305592
     50 H22        -4.6600   -2.6350    0.2850 h1        1 MOL      0.088910
     51 H23        -3.8470    0.3070   -0.1100 hc        1 MOL      0.035970
     52 H24        -3.8870   -0.9190   -1.3250 hc        1 MOL      0.035970
     53 N5         -4.6450   -2.1580    2.7390 n         1 MOL     -0.363968
     54 C17        -4.8140   -2.1780    4.2060 c3        1 MOL     -0.139530
     55 C18        -3.9680   -1.1720    4.9890 c         1 MOL      0.557060
     56 O9         -4.2270   -0.8670    6.1640 o         1 MOL     -0.561073
     57 H25        -4.1040   -2.8780    2.2770 hn        1 MOL      0.231130
     58 H26        -4.3690   -3.1370    4.4760 h1        1 MOL      0.096525
     59 H27        -5.8420   -2.1550    4.5530 h1        1 MOL      0.096525
     60 N6         -2.9950   -0.5270    4.3440 n         1 MOL     -0.252847
     61 C19        -2.1550    0.5760    4.9600 c3        1 MOL     -0.111140
     62 C20        -1.8530    1.7540    3.9390 c         1 MOL      0.504575
     63 O10        -1.7550    2.9020    4.3320 o         1 MOL     -0.509277
     64 C21        -0.9770   -0.0700    5.6740 c3        1 MOL     -0.202160
     65 C22         0.0860   -0.5260    4.7290 c         1 MOL      0.603826
     66 N7          1.3730   -0.2910    5.0060 n         1 MOL     -0.701239
     67 O11        -0.1780   -1.1100    3.7080 o         1 MOL     -0.603309
     68 H28        -2.7620   -0.7720    3.3890 hn        1 MOL      0.163841
     69 H29        -2.8090    0.9900    5.7300 h1        1 MOL      0.153759
     70 H30        -1.2860   -0.8200    6.4030 hc        1 MOL      0.096253
     71 H31        -0.5540    0.7050    6.3140 hc        1 MOL      0.096253
     72 H32         1.5690    0.3140    5.7910 hn        1 MOL      0.342779
     73 H33         2.1200   -0.4530    4.3390 hn        1 MOL      0.342779
     74 N8         -1.8580    1.3440    2.6700 n         1 MOL     -0.108647
     75 C23        -1.7230    2.2370    1.5020 c3        1 MOL     -0.183778
     76 C24        -0.3540    2.8650    1.2890 c         1 MOL      0.611553
     77 O12         0.4870    2.5750    2.1320 o         1 MOL     -0.532022
     78 H34        -1.9230    0.3700    2.4160 hn        1 MOL      0.028872
     79 H35        -2.5050    2.9980    1.6160 h1        1 MOL      0.109837
     80 H36        -2.0230    1.7050    0.6040 h1        1 MOL      0.109837
     81 N9         -0.1480    3.6110    0.1850 n         1 MOL     -0.558669
     82 C25         1.1280    4.1650   -0.2780 c3        1 MOL      0.177660
     83 C26         2.2260    3.1480   -0.8200 c         1 MOL      0.440135
     84 O13         2.0860    1.9090   -0.7250 o         1 MOL     -0.511972
     85 C27         0.8910    5.1570   -1.4510 c3        1 MOL     -0.158150
     86 C28        -0.1460    6.3250   -1.1400 ca        1 MOL      0.175422
     87 C29        -0.9510    6.8590   -2.1850 ca        1 MOL     -0.341945
     88 C30        -0.2990    6.9030    0.1720 ca        1 MOL     -0.341945
     89 C31        -1.8680    7.9260   -1.9550 ca        1 MOL     -0.070139
     90 C32        -1.2450    7.8940    0.4500 ca        1 MOL     -0.070139
     91 C33        -1.9530    8.4510   -0.6480 ca        1 MOL      0.157264
     92 O14        -2.9520    9.3840   -0.4170 oh        1 MOL     -0.441020
     93 H37        -0.9970    3.8170   -0.3170 hn        1 MOL      0.327554
     94 H38         1.6480    4.6610    0.5390 h1        1 MOL      0.036024
     95 H39         0.4450    4.5710   -2.2480 hc        1 MOL      0.069983
     96 H40         1.8100    5.6880   -1.7170 hc        1 MOL      0.069983
     97 H41        -0.9510    6.5140   -3.2030 ha        1 MOL      0.176825
     98 H42         0.2150    6.4870    1.0370 ha        1 MOL      0.176825
     99 H43        -2.4710    8.3450   -2.7550 ha        1 MOL      0.133458
    100 H44        -1.3180    8.2560    1.4630 ha        1 MOL      0.133458
    101 H45        -2.8370    9.7040    0.4830 ho        1 MOL      0.356482
    102 N10         3.3930    3.6520   -1.2330 n         1 MOL     -0.375339
    103 C34         4.4550    2.8160   -1.7120 c3        1 MOL      0.108484
    104 C35         5.1430    2.2610   -0.5580 c         1 MOL      0.599048
    105 O15         5.2000    1.0590   -0.3870 o         1 MOL     -0.536401
    106 C36         5.4270    3.5690   -2.6610 c3        1 MOL      0.018819
    107 C37         4.7040    4.5450   -3.6600 c3        1 MOL     -0.093979
    108 C38         6.3910    2.5690   -3.4720 c3        1 MOL     -0.274329
    109 C39         3.4230    4.0010   -4.3850 c3        1 MOL     -0.092297
    110 H46         3.6170    4.6270   -1.0940 hn        1 MOL      0.240957
    111 H47         4.0560    1.9500   -2.2440 h1        1 MOL      0.067372
    112 H48         6.0910    4.1490   -2.0120 hc        1 MOL     -0.012715
    113 H49         5.4900    4.8050   -4.3700 hc        1 MOL      0.039457
    114 H50         4.4560    5.4600   -3.1290 hc        1 MOL      0.039457
    115 H51         5.8640    1.7580   -3.9870 hc        1 MOL      0.092165
    116 H52         7.0140    3.0460   -4.2170 hc        1 MOL      0.092165
    117 H53         7.0200    1.9860   -2.8010 hc        1 MOL      0.092165
    118 H54         3.6330    3.4260   -5.2860 hc        1 MOL      0.039229
    119 H55         2.8360    3.4100   -3.6840 hc        1 MOL      0.039229
    120 H56         2.6770    4.7660   -4.5650 hc        1 MOL      0.039229
    121 N11         5.6490    3.1650    0.2950 n         1 MOL     -0.558851
    122 C40         6.2470    2.7450    1.6010 c3        1 MOL      0.130361
    123 C41         7.5920    2.0280    1.3910 c         1 MOL      0.159752
    124 O16         8.0770    1.4050    2.3540 o         1 MOL     -0.458785
    125 C42         6.4320    3.9180    2.6040 c3        1 MOL      0.209659
    126 O17         5.1940    4.4350    2.9360 oh        1 MOL     -0.626188
    127 H57         5.5120    4.1560    0.1080 hn        1 MOL      0.305795
    128 H58         5.5390    2.0330    2.0240 h1        1 MOL      0.135697
    129 H59         6.9470    4.7790    2.1820 h1        1 MOL      0.025481
    130 H60         6.9390    3.5340    3.4860 h1        1 MOL      0.025481
    131 H61         5.2870    5.3560    3.2020 ho        1 MOL      0.412705
    132 N12         8.1910    2.1240    0.2040 n         1 MOL     -0.158472
    133 C43         9.3620    1.3420   -0.2940 c3        1 MOL      0.193055
    134 C44         9.2370   -0.2100   -0.2500 c         1 MOL      0.483628
    135 O18        10.2150   -0.8360   -0.3360 o         1 MOL     -0.510074
    136 C45        10.5990    1.9300    0.3390 c3        1 MOL     -0.354924
    137 H62         7.8400    2.7350   -0.5310 hn        1 MOL      0.183283
    138 H63         9.4540    1.6210   -1.3470 h1        1 MOL      0.018587
    139 H64        10.5240    1.9510    1.4230 hc        1 MOL      0.100593
    140 H65        11.5470    1.4230    0.1300 hc        1 MOL      0.100593
    141 H66        10.6000    2.9890    0.0890 hc        1 MOL      0.100593
    142 N13         8.0140   -0.6770   -0.1970 n         1 MOL     -0.354773
    143 C46         7.5950   -1.9950    0.1680 c3        1 MOL      0.299416
    144 C47         6.9110   -2.6530   -1.0240 c         1 MOL      0.499727
    145 O19         6.2050   -2.0900   -1.7830 o         1 MOL     -0.473443
    146 C48         6.6260   -1.9610    1.3370 c3        1 MOL     -0.129864
    147 H67         7.2920   -0.0040   -0.4070 hn        1 MOL      0.110802
    148 H68         8.4650   -2.6220    0.3510 h1        1 MOL     -0.007247
    149 H69         6.0510   -2.8770    1.4880 hc        1 MOL      0.041804
    150 H70         7.1030   -1.7960    2.3060 hc        1 MOL      0.041804
    151 H71         5.8640   -1.1840    1.1930 hc        1 MOL      0.041804
    152 N14         6.9880   -3.9960   -1.0920 n         1 MOL     -0.527618
    153 C49         6.2080   -4.8060   -2.0430 c3        1 MOL     -0.188520
    154 C50         6.4900   -4.4980   -3.5510 c         1 MOL      0.485830
    155 O20         5.5720   -4.5690   -4.4110 o         1 MOL     -0.509165
    156 C51         4.7540   -4.9560   -1.6210 c3        1 MOL      0.179797
    157 C52         4.7110   -5.8910   -0.3770 c3        1 MOL     -0.043414
    158 C53         5.1230   -7.3890   -0.6400 c         1 MOL      0.633441
    159 O21         6.1040   -7.7830    0.0660 o         1 MOL     -0.683873
    160 O22         4.4830   -8.1370   -1.4400 o         1 MOL     -0.683873
    161 H72         7.5220   -4.5130   -0.4150 hn        1 MOL      0.323491
    162 H73         6.6970   -5.7810   -1.9590 h1        1 MOL      0.138517
    163 H74         4.1380   -5.3720   -2.4110 hc        1 MOL     -0.019684
    164 H75         4.3230   -4.0080   -1.2920 hc        1 MOL     -0.019684
    165 H76         3.6770   -5.8890   -0.0210 hc        1 MOL     -0.053803
    166 H77         5.4060   -5.5380    0.3800 hc        1 MOL     -0.053803
    167 N15         7.7160   -4.0310   -3.8570 n         1 MOL     -0.282935
    168 C54         8.1670   -3.3770   -5.0520 c3        1 MOL     -0.140400
    169 H78         9.2560   -3.3130   -5.0410 h1        1 MOL      0.085506
    170 H79         7.8450   -3.9480   -5.9220 h1        1 MOL      0.085506
    171 H80         7.7450   -2.3730   -5.0990 h1        1 MOL      0.085506
    172 H81         8.1840   -3.9150   -2.9740 hn        1 MOL      0.218493
    173 Ca1         0.1110   -2.6200    1.4260 Ca        1 MOL      1.813190
    174 O23         1.2510   -2.5500   -1.0350 oh        1 MOL     -0.836746
    175 H82         1.6580   -1.7570   -1.3850 ho        1 MOL      0.420745
    176 H83         1.4430   -3.2180   -1.6950 ho        1 MOL      0.420745
    177 O24         0.7810   -3.7620    3.8130 oh        1 MOL     -0.836746
    178 H84         0.4840   -3.5600    4.7060 ho        1 MOL      0.420745
    179 H85         1.0850   -4.6660    3.8620 ho        1 MOL      0.420745
    180 O25         2.7390   -2.2330    1.7720 oh        1 MOL     -0.836746
    181 H86         3.2790   -1.8090    2.4400 ho        1 MOL      0.420745
    182 H87         2.9690   -1.7810    0.9570 ho        1 MOL      0.420745
    183 O26         0.9700   -0.1100    1.1020 oh        1 MOL     -0.836746
    184 H88         0.4230    0.4050    1.6910 ho        1 MOL      0.420745
    185 H89         1.5870    0.5270    0.7380 ho        1 MOL      0.420745
    186 O27         0.6970   -5.1000    0.2090 oh        1 MOL     -0.836746
    187 H90         1.3400   -5.7870    0.0540 ho        1 MOL      0.420745
    188 H91        -0.1460   -5.5540    0.2110 ho        1 MOL      0.420745
    189 O28        -1.8400   -4.5220    2.1460 oh        1 MOL     -0.836746
    190 H92        -2.5580   -4.9220    1.6590 ho        1 MOL      0.420745
    191 H93        -1.9770   -4.8200    3.0470 ho        1 MOL      0.420745
@<TRIPOS>BOND
     1    1    2 1   
     2    1    4 1   
     3    1    5 1   
     4    1    6 1   
     5    2    3 2   
     6    2    7 1   
     7    7    8 1   
     8    7   15 1   
     9    8    9 1   
    10    8   11 1   
    11    8   16 1   
    12    9   10 2   
    13    9   19 1   
    14   11   12 1   
    15   11   17 1   
    16   11   18 1   
    17   12   13 1   
    18   12   14 1   
    19   19   20 1   
    20   19   28 1   
    21   20   21 1   
    22   20   23 1   
    23   20   29 1   
    24   21   22 2   
    25   21   41 1   
    26   23   24 1   
    27   23   30 1   
    28   23   31 1   
    29   24   25 1   
    30   24   32 1   
    31   24   33 1   
    32   25   26 1   
    33   25   34 1   
    34   25   35 1   
    35   26   27 1   
    36   26   36 1   
    37   26   37 1   
    38   27   38 1   
    39   27   39 1   
    40   27   40 1   
    41   41   42 1   
    42   41   49 1   
    43   42   43 1   
    44   42   45 1   
    45   42   50 1   
    46   43   44 2   
    47   43   53 1   
    48   45   46 1   
    49   45   51 1   
    50   45   52 1   
    51   46   47 1   
    52   46   48 1   
    53   53   54 1   
    54   53   57 1   
    55   54   55 1   
    56   54   58 1   
    57   54   59 1   
    58   55   56 2   
    59   55   60 1   
    60   60   61 1   
    61   60   68 1   
    62   61   62 1   
    63   61   64 1   
    64   61   69 1   
    65   62   63 2   
    66   62   74 1   
    67   64   65 1   
    68   64   70 1   
    69   64   71 1   
    70   65   66 1   
    71   65   67 2   
    72   66   72 1   
    73   66   73 1   
    74   74   75 1   
    75   74   78 1   
    76   75   76 1   
    77   75   79 1   
    78   75   80 1   
    79   76   77 2   
    80   76   81 1   
    81   81   82 1   
    82   81   93 1   
    83   82   83 1   
    84   82   85 1   
    85   82   94 1   
    86   83   84 2   
    87   83  102 1   
    88   85   86 1   
    89   85   95 1   
    90   85   96 1   
    91   86   87 ar  
    92   86   88 ar  
    93   87   89 ar  
    94   87   97 1   
    95   88   90 ar  
    96   88   98 1   
    97   89   91 ar  
    98   89   99 1   
    99   90   91 ar  
   100   90  100 1   
   101   91   92 1   
   102   92  101 1   
   103  102  103 1   
   104  102  110 1   
   105  103  104 1   
   106  103  106 1   
   107  103  111 1   
   108  104  105 2   
   109  104  121 1   
   110  106  107 1   
   111  106  108 1   
   112  106  112 1   
   113  107  109 1   
   114  107  113 1   
   115  107  114 1   
   116  108  115 1   
   117  108  116 1   
   118  108  117 1   
   119  109  118 1   
   120  109  119 1   
   121  109  120 1   
   122  121  122 1   
   123  121  127 1   
   124  122  123 1   
   125  122  125 1   
   126  122  128 1   
   127  123  124 2   
   128  123  132 1   
   129  125  126 1   
   130  125  129 1   
   131  125  130 1   
   132  126  131 1   
   133  132  133 1   
   134  132  137 1   
   135  133  134 1   
   136  133  136 1   
   137  133  138 1   
   138  134  135 2   
   139  134  142 1   
   140  136  139 1   
   141  136  140 1   
   142  136  141 1   
   143  142  143 1   
   144  142  147 1   
   145  143  144 1   
   146  143  146 1   
   147  143  148 1   
   148  144  145 2   
   149  144  152 1   
   150  146  149 1   
   151  146  150 1   
   152  146  151 1   
   153  152  153 1   
   154  152  161 1   
   155  153  154 1   
   156  153  156 1   
   157  153  162 1   
   158  154  155 2   
   159  154  167 1   
   160  156  157 1   
   161  156  163 1   
   162  156  164 1   
   163  157  158 1   
   164  157  165 1   
   165  157  166 1   
   166  158  159 1   
   167  158  160 1   
   168  167  168 1   
   169  167  172 1   
   170  168  169 1   
   171  168  170 1   
   172  168  171 1   
   173  174  175 1   
   174  174  176 1   
   175  177  178 1   
   176  177  179 1   
   177  180  181 1   
   178  180  182 1   
   179  183  184 1   
   180  183  185 1   
   181  186  187 1   
   182  186  188 1   
   183  189  190 1   
   184  189  191 1   
@<TRIPOS>SUBSTRUCTURE
     1 MOL         1 TEMP              0 ****  ****    0 ROOT
