@<TRIPOS>MOLECULE
MOL
  189   185     1     0     0
SMALL
resp


@<TRIPOS>ATOM
      1 C1          4.2970    4.1220   -3.3920 c3        1 MOL     -0.342636
      2 C2          5.1830    3.5140   -2.3000 c         1 MOL      0.721801
      3 O1          4.7380    3.2500   -1.1880 o         1 MOL     -0.593332
      4 H1          4.9200    4.4440   -4.2270 hc        1 MOL      0.085025
      5 H2          3.5830    3.3750   -3.7400 hc        1 MOL      0.085025
      6 H3          3.7600    4.9800   -2.9880 hc        1 MOL      0.085025
      7 N1          6.4200    3.2050   -2.6670 n         1 MOL     -0.639938
      8 C3          7.1080    2.0970   -2.0110 c3        1 MOL      0.213545
      9 C4          6.2050    0.9150   -1.7890 c         1 MOL      0.391237
     10 O2          5.8470    0.5440   -0.6480 o         1 MOL     -0.444112
     11 C5          7.9700    2.5170   -0.8330 c3        1 MOL     -0.191516
     12 C6          7.2930    3.2960    0.3150 c         1 MOL      0.690973
     13 O3          6.8740    2.6540    1.2960 o         1 MOL     -0.694149
     14 O4          7.0670    4.5270    0.1010 o         1 MOL     -0.694149
     15 H4          6.8410    3.7390   -3.4140 hn        1 MOL      0.348495
     16 H5          7.8230    1.7830   -2.7670 h1        1 MOL      0.023684
     17 H6          8.7970    3.1610   -1.1070 hc        1 MOL      0.031267
     18 H7          8.4580    1.6470   -0.4030 hc        1 MOL      0.031267
     19 N2          5.7540    0.2020   -2.8770 n         1 MOL     -0.491324
     20 C7          4.9740   -1.0060   -3.0810 c3        1 MOL      0.188960
     21 C8          5.4660   -2.3430   -2.3920 c         1 MOL      0.348245
     22 O5          5.7720   -3.3110   -3.0350 o         1 MOL     -0.538188
     23 C9          3.4680   -0.7660   -2.7540 c3        1 MOL      0.165666
     24 C10         2.6720   -1.9270   -3.1900 c3        1 MOL     -0.225980
     25 C11         2.9690    0.5690   -3.3230 c3        1 MOL     -0.109431
     26 C12         2.5850   -2.2210   -4.6620 c3        1 MOL      0.009289
     27 H8          6.1890    0.6430   -3.6790 hn        1 MOL      0.252084
     28 H9          5.0120   -1.1800   -4.1570 h1        1 MOL      0.033154
     29 H10         3.4990   -0.6060   -1.6740 hc        1 MOL     -0.272879
     30 H11         1.6440   -1.6770   -2.9180 hc        1 MOL      0.111650
     31 H12         2.9530   -2.9090   -2.7980 hc        1 MOL      0.111650
     32 H13         3.3280    1.3870   -2.6890 hc        1 MOL      0.033354
     33 H14         3.2110    0.7190   -4.3810 hc        1 MOL      0.033354
     34 H15         1.8910    0.6030   -3.1910 hc        1 MOL      0.033354
     35 H16         1.6940   -2.7950   -4.9350 hc        1 MOL     -0.010168
     36 H17         2.4260   -1.2880   -5.2110 hc        1 MOL     -0.010168
     37 H18         3.5010   -2.6840   -5.0430 hc        1 MOL     -0.010168
     38 N3          5.7350   -2.2920   -1.0810 n         1 MOL      0.019734
     39 C13         6.4710   -3.2010   -0.3210 c3        1 MOL      0.058780
     40 C14         5.7790   -4.4840    0.1170 c         1 MOL      0.444438
     41 O6          6.3580   -5.5530    0.0210 o         1 MOL     -0.539587
     42 C15         7.1720   -2.5470    0.8260 c3        1 MOL     -0.291085
     43 C16         8.1490   -3.4750    1.6100 c         1 MOL      0.751058
     44 O7          7.8770   -3.7630    2.8270 o         1 MOL     -0.732049
     45 O8          9.2380   -3.7580    1.0700 o         1 MOL     -0.732049
     46 H19         5.4110   -1.4830   -0.5640 hn        1 MOL      0.059916
     47 H20         7.2660   -3.6250   -0.9290 h1        1 MOL      0.039806
     48 H21         6.3710   -2.2230    1.5050 hc        1 MOL      0.068965
     49 H22         7.6340   -1.6350    0.4650 hc        1 MOL      0.068965
     50 N4          4.5430   -4.5510    0.6140 n         1 MOL     -0.376346
     51 C17         3.6490   -3.4490    0.9430 c3        1 MOL      0.039141
     52 C18         2.4410   -3.8880    1.8130 c         1 MOL      0.555719
     53 O9          2.1810   -5.1190    1.9180 o         1 MOL     -0.539014
     54 H23         4.1730   -5.4840    0.7460 hn        1 MOL      0.252251
     55 H24         3.2140   -3.0280    0.0440 h1        1 MOL      0.046080
     56 H25         4.2210   -2.6740    1.4550 h1        1 MOL      0.046080
     57 N5          1.6690   -2.9800    2.4730 n         1 MOL     -0.486967
     58 C19         1.9110   -1.5000    2.5550 c3        1 MOL      0.054056
     59 C20         2.1650   -0.7590    1.2770 c         1 MOL      0.076616
     60 O10         3.3090   -0.3520    1.0030 o         1 MOL     -0.297840
     61 C21         2.9710   -1.0980    3.6190 c3        1 MOL     -0.138735
     62 C22         2.9600    0.4160    3.9390 c         1 MOL      0.685471
     63 O11         3.2290    0.6650    5.1370 o         1 MOL     -0.691535
     64 O12         2.7880    1.2930    3.0720 o         1 MOL     -0.691535
     65 H26         0.9910   -3.3550    3.1190 hn        1 MOL      0.316474
     66 H27         0.9870   -1.0330    2.9080 h1        1 MOL      0.094632
     67 H28         3.9490   -1.3010    3.1820 hc        1 MOL      0.049997
     68 H29         2.9150   -1.6970    4.5310 hc        1 MOL      0.049997
     69 N6          1.2530   -0.6440    0.3250 n         1 MOL     -0.046286
     70 C23        -0.2160   -0.8900    0.4640 c3        1 MOL     -0.284285
     71 C24        -0.4660   -2.3930    0.0880 c         1 MOL      0.568233
     72 O13         0.2230   -3.0130   -0.6710 o         1 MOL     -0.468906
     73 H30         1.5570   -0.1570   -0.5120 hn        1 MOL      0.279388
     74 H31        -0.8310   -0.2900   -0.2090 h1        1 MOL      0.124374
     75 H32        -0.5640   -0.6110    1.4530 h1        1 MOL      0.124374
     76 N7         -1.5100   -2.9810    0.7620 n         1 MOL     -0.375008
     77 C25        -2.1140   -4.2590    0.4380 c3        1 MOL     -0.283646
     78 C26        -2.8030   -4.2890   -0.9820 c         1 MOL      0.412363
     79 O14        -3.1330   -5.3580   -1.4750 o         1 MOL     -0.527934
     80 C27        -3.2610   -4.5320    1.4110 c3        1 MOL      0.186680
     81 C28        -2.8400   -4.6810    2.8830 c3        1 MOL     -0.274344
     82 C29        -1.9060   -5.8180    3.1020 c         1 MOL      0.675366
     83 N8         -2.3990   -6.9190    3.4540 n         1 MOL     -0.759932
     84 O15        -0.7070   -5.6650    3.0210 o         1 MOL     -0.537658
     85 H33        -1.9490   -2.4810    1.5240 hn        1 MOL      0.255249
     86 H34        -1.3880   -5.0670    0.5650 h1        1 MOL      0.201613
     87 H35        -3.6940   -5.4900    1.1520 hc        1 MOL      0.005377
     88 H36        -4.1210   -3.8690    1.2780 hc        1 MOL      0.005377
     89 H37        -3.7670   -4.8130    3.4490 hc        1 MOL      0.061422
     90 H38        -2.3320   -3.7380    3.0400 hc        1 MOL      0.061422
     91 H39        -3.3840   -7.1210    3.5620 hn        1 MOL      0.352820
     92 H40        -1.7250   -7.6800    3.4300 hn        1 MOL      0.352820
     93 N9         -2.9470   -3.1610   -1.5670 n         1 MOL      0.047920
     94 C30        -3.5140   -3.0470   -2.9390 c3        1 MOL     -0.433649
     95 C31        -4.8030   -2.3380   -3.1090 c         1 MOL      0.775905
     96 O16        -5.4730   -2.4950   -4.1250 o         1 MOL     -0.598075
     97 C32        -2.4850   -2.4170   -3.8810 c3        1 MOL      0.250325
     98 C33        -1.1660   -3.1920   -3.9340 c3        1 MOL     -0.139553
     99 C34        -2.0460   -0.9790   -3.4740 c3        1 MOL     -0.139553
    100 H41        -2.7230   -2.4000   -0.9470 hn        1 MOL      0.141066
    101 H42        -3.5990   -4.0790   -3.2970 h1        1 MOL      0.181207
    102 H43        -2.9320   -2.2550   -4.8640 hc        1 MOL     -0.004609
    103 H44        -0.5150   -2.6760   -4.6430 hc        1 MOL      0.021567
    104 H45        -0.6490   -3.1870   -2.9690 hc        1 MOL      0.021567
    105 H46        -1.4990   -4.1750   -4.2360 hc        1 MOL      0.021567
    106 H47        -1.7080   -0.8820   -2.4450 hc        1 MOL      0.021567
    107 H48        -1.2830   -0.6480   -4.1730 hc        1 MOL      0.021567
    108 H49        -2.8660   -0.3010   -3.7160 hc        1 MOL      0.021567
    109 N10        -5.3190   -1.6540   -2.0980 n         1 MOL     -0.577680
    110 C35        -6.6810   -1.0180   -2.0160 c3        1 MOL      0.135751
    111 C36        -6.7310    0.4110   -1.3700 c         1 MOL      0.528303
    112 O17        -7.7020    1.1720   -1.5180 o         1 MOL     -0.552147
    113 C37        -7.4840   -1.9990   -1.1880 c3        1 MOL     -0.459615
    114 C38        -7.4020   -3.5090   -1.4680 c         1 MOL      0.782654
    115 N11        -8.0830   -4.0620   -2.4130 n         1 MOL     -0.782513
    116 O18        -6.8890   -4.2680   -0.7140 o         1 MOL     -0.571235
    117 H50        -4.7770   -1.7960   -1.2480 hn        1 MOL      0.238552
    118 H51        -7.1330   -0.9760   -3.0150 h1        1 MOL      0.094094
    119 H52        -8.5240   -1.7040   -1.2260 hc        1 MOL      0.136631
    120 H53        -7.2140   -1.7930   -0.1500 hc        1 MOL      0.136631
    121 H54        -8.6660   -3.5380   -3.0540 hn        1 MOL      0.351217
    122 H55        -8.1590   -5.0700   -2.4910 hn        1 MOL      0.351217
    123 N12        -5.7280    0.7990   -0.5890 n         1 MOL     -0.547875
    124 C39        -5.8350    1.9550    0.3180 c3        1 MOL      0.352609
    125 C40        -4.5060    2.7510    0.4560 c         1 MOL      0.325828
    126 O19        -3.4010    2.1840    0.2950 o         1 MOL     -0.475430
    127 C41        -6.1610    1.4850    1.7590 c3        1 MOL     -0.132164
    128 C42        -7.3280    0.5590    1.8650 ca        1 MOL      0.055722
    129 C43        -8.5670    0.8720    1.2870 ca        1 MOL     -0.185724
    130 C44        -7.2420   -0.7100    2.3780 ca        1 MOL     -0.185724
    131 C45        -9.6440   -0.0810    1.1570 ca        1 MOL     -0.253689
    132 C46        -8.2870   -1.6740    2.3710 ca        1 MOL     -0.253689
    133 C47        -9.5330   -1.2950    1.8040 ca        1 MOL      0.367308
    134 O20       -10.5900   -2.1260    1.8040 oh        1 MOL     -0.538604
    135 H56        -5.0590    0.0550   -0.4690 hn        1 MOL      0.283401
    136 H57        -6.5780    2.6810    0.0140 h1        1 MOL      0.015870
    137 H58        -6.3810    2.4330    2.2510 hc        1 MOL      0.083840
    138 H59        -5.2820    0.9820    2.1610 hc        1 MOL      0.083840
    139 H60        -8.6230    1.8160    0.7670 ha        1 MOL      0.137979
    140 H61        -6.2940   -1.0460    2.7760 ha        1 MOL      0.137979
    141 H62       -10.4920    0.2900    0.5980 ha        1 MOL      0.141047
    142 H63        -8.1140   -2.7150    2.6300 ha        1 MOL      0.141047
    143 H64       -11.4270   -1.8390    1.4330 ho        1 MOL      0.382767
    144 N13        -4.6650    4.0640    0.7800 n         1 MOL     -0.410279
    145 C48        -3.7650    5.2370    1.0760 c3        1 MOL     -0.034431
    146 C49        -2.7420    5.5310    0.0100 c         1 MOL      0.283972
    147 O21        -2.2920    6.6860   -0.1210 o         1 MOL     -0.500119
    148 C50        -3.0490    5.0600    2.4700 c3        1 MOL      0.039260
    149 C51        -4.0520    4.9900    3.6740 c3        1 MOL     -0.041550
    150 C52        -3.4390    5.3760    4.9510 c         1 MOL      0.648758
    151 O22        -2.7780    6.4640    4.9800 o         1 MOL     -0.721433
    152 O23        -3.4760    4.5570    5.9270 o         1 MOL     -0.721433
    153 H65        -5.6350    4.3020    0.8850 hn        1 MOL      0.271162
    154 H66        -4.3890    6.1160    1.2180 h1        1 MOL      0.096841
    155 H67        -2.4300    5.9450    2.6090 hc        1 MOL      0.070642
    156 H68        -2.3950    4.1980    2.5720 hc        1 MOL      0.070642
    157 H69        -4.5490    4.0290    3.7660 hc        1 MOL     -0.048941
    158 H70        -4.8770    5.7020    3.6400 hc        1 MOL     -0.048941
    159 N14        -2.2200    4.5820   -0.7280 n         1 MOL     -0.062963
    160 C53        -1.2880    4.6700   -1.8730 c3        1 MOL     -0.155008
    161 C54        -1.9390    5.1110   -3.2070 c         1 MOL      0.486800
    162 O24        -1.2060    5.5760   -4.1050 o         1 MOL     -0.546760
    163 C55        -0.5800    3.3110   -2.1220 c3        1 MOL      0.036615
    164 C56        -0.0970    2.4020   -0.9120 c3        1 MOL      0.219281
    165 C57         1.1160    2.9700   -0.2160 c         1 MOL      0.547220
    166 O25         1.0690    3.9820    0.5290 o         1 MOL     -0.640546
    167 O26         2.1900    2.3580   -0.2050 o         1 MOL     -0.640546
    168 H71        -2.3780    3.6200   -0.4680 hn        1 MOL      0.163081
    169 H72        -0.5240    5.4320   -1.6880 h1        1 MOL      0.144717
    170 H73         0.1670    3.4010   -2.9180 hc        1 MOL     -0.018492
    171 H74        -1.2940    2.6440   -2.6020 hc        1 MOL     -0.018492
    172 H75         0.3920    1.5270   -1.3420 hc        1 MOL     -0.090384
    173 H76        -0.9040    2.1960   -0.2210 hc        1 MOL     -0.090384
    174 N15        -3.2730    5.0720   -3.3490 n         1 MOL     -0.254481
    175 C58        -3.9910    5.7930   -4.4120 c3        1 MOL     -0.203497
    176 H77        -3.2870    6.0880   -5.1900 h1        1 MOL      0.095527
    177 H78        -4.7550    5.1440   -4.8420 h1        1 MOL      0.095527
    178 H79        -4.4630    6.6820   -3.9940 h1        1 MOL      0.095527
    179 H80        -3.7650    4.6390   -2.5860 hn        1 MOL      0.199480
    180 Ca1         4.3450    2.0890    1.1660 Ca        1 MOL      1.730953
    181 O27         5.1480    3.0890    3.7390 oh        1 MOL     -0.830616
    182 H81         4.4610    2.8000    4.3400 ho        1 MOL      0.392610
    183 H82         5.8270    3.4430    4.3140 ho        1 MOL      0.392610
    184 O28         6.1160    0.2940    2.7460 oh        1 MOL     -0.830616
    185 H83         6.3850   -0.4950    3.2010 ho        1 MOL      0.392610
    186 H84         6.9060    0.8310    2.6960 ho        1 MOL      0.392610
    187 O29         3.5360    4.5890    1.4960 oh        1 MOL     -0.830616
    188 H85         2.6640    4.5790    1.1150 ho        1 MOL      0.392610
    189 H86         4.0140    5.2620    1.0050 ho        1 MOL      0.392610
@<TRIPOS>BOND
     1    1    2 1   
     2    1    4 1   
     3    1    5 1   
     4    1    6 1   
     5    2    3 2   
     6    2    7 1   
     7    7    8 1   
     8    7   15 1   
     9    8    9 1   
    10    8   11 1   
    11    8   16 1   
    12    9   10 2   
    13    9   19 1   
    14   11   12 1   
    15   11   17 1   
    16   11   18 1   
    17   12   13 1   
    18   12   14 1   
    19   19   20 1   
    20   19   27 1   
    21   20   21 1   
    22   20   23 1   
    23   20   28 1   
    24   21   22 2   
    25   21   38 1   
    26   23   24 1   
    27   23   25 1   
    28   23   29 1   
    29   24   26 1   
    30   24   30 1   
    31   24   31 1   
    32   25   32 1   
    33   25   33 1   
    34   25   34 1   
    35   26   35 1   
    36   26   36 1   
    37   26   37 1   
    38   38   39 1   
    39   38   46 1   
    40   39   40 1   
    41   39   42 1   
    42   39   47 1   
    43   40   41 2   
    44   40   50 1   
    45   42   43 1   
    46   42   48 1   
    47   42   49 1   
    48   43   44 1   
    49   43   45 1   
    50   50   51 1   
    51   50   54 1   
    52   51   52 1   
    53   51   55 1   
    54   51   56 1   
    55   52   53 2   
    56   52   57 1   
    57   57   58 1   
    58   57   65 1   
    59   58   59 1   
    60   58   61 1   
    61   58   66 1   
    62   59   60 2   
    63   59   69 1   
    64   61   62 1   
    65   61   67 1   
    66   61   68 1   
    67   62   63 1   
    68   62   64 1   
    69   69   70 1   
    70   69   73 1   
    71   70   71 1   
    72   70   74 1   
    73   70   75 1   
    74   71   72 2   
    75   71   76 1   
    76   76   77 1   
    77   76   85 1   
    78   77   78 1   
    79   77   80 1   
    80   77   86 1   
    81   78   79 2   
    82   78   93 1   
    83   80   81 1   
    84   80   87 1   
    85   80   88 1   
    86   81   82 1   
    87   81   89 1   
    88   81   90 1   
    89   82   83 1   
    90   82   84 2   
    91   83   91 1   
    92   83   92 1   
    93   93   94 1   
    94   93  100 1   
    95   94   95 1   
    96   94   97 1   
    97   94  101 1   
    98   95   96 2   
    99   95  109 1   
   100   97   98 1   
   101   97   99 1   
   102   97  102 1   
   103   98  103 1   
   104   98  104 1   
   105   98  105 1   
   106   99  106 1   
   107   99  107 1   
   108   99  108 1   
   109  109  110 1   
   110  109  117 1   
   111  110  111 1   
   112  110  113 1   
   113  110  118 1   
   114  111  112 2   
   115  111  123 1   
   116  113  114 1   
   117  113  119 1   
   118  113  120 1   
   119  114  115 1   
   120  114  116 2   
   121  115  121 1   
   122  115  122 1   
   123  123  124 1   
   124  123  135 1   
   125  124  125 1   
   126  124  127 1   
   127  124  136 1   
   128  125  126 2   
   129  125  144 1   
   130  127  128 1   
   131  127  137 1   
   132  127  138 1   
   133  128  129 ar  
   134  128  130 ar  
   135  129  131 ar  
   136  129  139 1   
   137  130  132 ar  
   138  130  140 1   
   139  131  133 ar  
   140  131  141 1   
   141  132  133 ar  
   142  132  142 1   
   143  133  134 1   
   144  134  143 1   
   145  144  145 1   
   146  144  153 1   
   147  145  146 1   
   148  145  148 1   
   149  145  154 1   
   150  146  147 2   
   151  146  159 1   
   152  148  149 1   
   153  148  155 1   
   154  148  156 1   
   155  149  150 1   
   156  149  157 1   
   157  149  158 1   
   158  150  151 1   
   159  150  152 1   
   160  159  160 1   
   161  159  168 1   
   162  160  161 1   
   163  160  163 1   
   164  160  169 1   
   165  161  162 2   
   166  161  174 1   
   167  163  164 1   
   168  163  170 1   
   169  163  171 1   
   170  164  165 1   
   171  164  172 1   
   172  164  173 1   
   173  165  166 1   
   174  165  167 1   
   175  174  175 1   
   176  174  179 1   
   177  175  176 1   
   178  175  177 1   
   179  175  178 1   
   180  181  182 1   
   181  181  183 1   
   182  184  185 1   
   183  184  186 1   
   184  187  188 1   
   185  187  189 1   
@<TRIPOS>SUBSTRUCTURE
     1 MOL         1 TEMP              0 ****  ****    0 ROOT
