@<TRIPOS>MOLECULE
MOL
  201   193     1     0     0
SMALL
resp


@<TRIPOS>ATOM
      1 C1         11.5290   -6.6920   -0.3660 c3        1 MOL     -0.382367
      2 C2         11.4400   -5.2820    0.2810 c         1 MOL      0.704691
      3 O1         11.9400   -4.9810    1.3630 o         1 MOL     -0.603946
      4 H1         11.3860   -7.4530    0.4010 hc        1 MOL      0.100379
      5 H2         10.7540   -6.7930   -1.1250 hc        1 MOL      0.100379
      6 H3         12.5090   -6.8200   -0.8260 hc        1 MOL      0.100379
      7 N1         10.7760   -4.3480   -0.4230 n         1 MOL     -0.369880
      8 C3         10.7280   -2.9370   -0.0470 c3        1 MOL     -0.174392
      9 C4          9.5510   -2.5620    0.8460 c         1 MOL      0.394657
     10 O2          8.3820   -3.0010    0.6140 o         1 MOL     -0.571493
     11 C5         10.7010   -1.9590   -1.2670 c3        1 MOL      0.138088
     12 C6          9.9520   -2.5420   -2.4720 c         1 MOL      0.640311
     13 O3          8.8650   -3.1750   -2.2660 o         1 MOL     -0.666022
     14 O4         10.5500   -2.4820   -3.5820 o         1 MOL     -0.666022
     15 H4         10.3560   -4.6190   -1.3000 hn        1 MOL      0.210951
     16 H5         11.6010   -2.6170    0.5230 h1        1 MOL      0.113891
     17 H6         11.7310   -1.7730   -1.5770 hc        1 MOL      0.013624
     18 H7         10.1700   -1.0810   -0.9030 hc        1 MOL      0.013624
     19 N2          9.7740   -1.6340    1.7850 n         1 MOL     -0.197357
     20 C7          8.6810   -0.9980    2.4610 c3        1 MOL      0.019154
     21 C8          8.0630    0.1670    1.6250 c         1 MOL      0.324809
     22 O5          7.2130    0.8950    2.1580 o         1 MOL     -0.516033
     23 C9          9.2150   -0.4990    3.8300 c3        1 MOL     -0.245223
     24 C10         9.8830   -1.6130    4.7140 c3        1 MOL      0.117467
     25 C11        10.2490   -0.9790    6.0840 c3        1 MOL      0.069269
     26 C12        10.8160   -1.9960    7.0970 c3        1 MOL     -0.053477
     27 N3         10.6460   -1.5400    8.4760 n4        1 MOL     -0.180632
     28 H8         10.7280   -1.4040    2.0270 hn        1 MOL      0.269075
     29 H9          7.8510   -1.6870    2.6300 h1        1 MOL      0.061179
     30 H10         8.4190    0.0250    4.3720 hc        1 MOL      0.106886
     31 H11         9.9900    0.2490    3.6650 hc        1 MOL      0.106886
     32 H12        10.6890   -2.1480    4.2250 hc        1 MOL     -0.019693
     33 H13         9.1590   -2.3860    4.9760 hc        1 MOL     -0.019693
     34 H14         9.3620   -0.5160    6.5190 hc        1 MOL      0.010464
     35 H15        11.0190   -0.2240    5.9080 hc        1 MOL      0.010464
     36 H16        11.8670   -2.1070    6.8600 hx        1 MOL      0.088354
     37 H17        10.2040   -2.8780    6.9280 hx        1 MOL      0.088354
     38 H18        10.9280   -0.5930    8.6700 hn        1 MOL      0.219601
     39 H19         9.6620   -1.5070    8.7090 hn        1 MOL      0.219601
     40 H20        11.2460   -2.0670    9.0830 hn        1 MOL      0.219601
     41 N4          8.6270    0.3970    0.4540 n         1 MOL     -0.064433
     42 C13         8.2800    1.4860   -0.4520 c3        1 MOL     -0.002068
     43 C14         7.3190    0.8370   -1.5310 c         1 MOL      0.863622
     44 O6          7.1810   -0.3560   -1.7360 o         1 MOL     -0.779296
     45 C15         9.5430    2.1510   -0.9590 c3        1 MOL     -0.057203
     46 C16        10.5190    2.5980    0.1400 c         1 MOL      0.696102
     47 O7         10.2390    3.6620    0.7570 o         1 MOL     -0.692284
     48 O8         11.5820    1.9430    0.2850 o         1 MOL     -0.692284
     49 H21         9.3330   -0.2770    0.1790 hn        1 MOL     -0.015553
     50 H22         7.7010    2.2510    0.0720 h1        1 MOL      0.105463
     51 H23         9.1960    3.0220   -1.5130 hc        1 MOL     -0.012766
     52 H24         9.9850    1.4220   -1.6300 hc        1 MOL     -0.012766
     53 N5          6.4160    1.6190   -2.1440 n         1 MOL     -0.672453
     54 C17         6.4930    3.1380   -2.3720 c3        1 MOL     -0.120030
     55 C18         5.5920    3.8560   -1.3350 c         1 MOL      0.605013
     56 O9          5.2790    3.3270   -0.2940 o         1 MOL     -0.582021
     57 H25         5.7030    1.1750   -2.7040 hn        1 MOL      0.363020
     58 H26         6.0430    3.4450   -3.3100 h1        1 MOL      0.103991
     59 H27         7.4830    3.5810   -2.2980 h1        1 MOL      0.103991
     60 N6          5.2230    5.0370   -1.6630 n         1 MOL     -0.266139
     61 C19         4.4370    5.8520   -0.7290 c3        1 MOL     -0.158591
     62 C20         2.8730    5.7470   -0.9120 c         1 MOL      0.493397
     63 O10         2.1060    6.0020   -0.0580 o         1 MOL     -0.495418
     64 C21         4.8980    7.3730   -0.7690 c3        1 MOL     -0.211032
     65 C22         5.0290    8.0680   -2.1240 c         1 MOL      0.706526
     66 O11         4.4120    7.7970   -3.1540 o         1 MOL     -0.644938
     67 O12         5.7460    9.1380   -2.0660 o         1 MOL     -0.644938
     68 H28         5.5400    5.3570   -2.5710 hn        1 MOL      0.205774
     69 H29         4.6180    5.6290    0.3190 h1        1 MOL      0.149824
     70 H30         5.8870    7.3700   -0.3220 hc        1 MOL      0.084459
     71 H31         4.2610    7.9190   -0.0780 hc        1 MOL      0.084459
     72 N7          2.4090    5.4040   -2.1250 n         1 MOL     -0.187331
     73 C23         0.9490    5.2690   -2.5400 c3        1 MOL     -0.083339
     74 C24         0.0800    4.2770   -1.7600 c         1 MOL      0.530708
     75 O13        -1.1010    4.5690   -1.4810 o         1 MOL     -0.541788
     76 H32         3.0870    5.0700   -2.7920 hn        1 MOL      0.167187
     77 H33         0.9650    5.0190   -3.6050 h1        1 MOL      0.077405
     78 H34         0.4850    6.2590   -2.5240 h1        1 MOL      0.077405
     79 N8          0.6680    3.1450   -1.3410 n         1 MOL     -0.243024
     80 C25         0.1140    2.0620   -0.5230 c3        1 MOL     -0.055814
     81 C26        -1.1530    1.4260   -1.1300 c         1 MOL      0.412731
     82 O14        -1.2550    1.3550   -2.3290 o         1 MOL     -0.462618
     83 C27         1.2310    1.0870   -0.1710 c3        1 MOL      0.191114
     84 C28         1.9860    0.5830   -1.3400 c3        1 MOL     -0.508014
     85 O15         2.1900    1.9300    0.5400 oh        1 MOL     -0.576211
     86 H35         1.6420    3.1340   -1.6190 hn        1 MOL      0.166094
     87 H36        -0.1260    2.4430    0.4760 h1        1 MOL      0.115906
     88 H37         0.8270    0.3330    0.5000 h1        1 MOL      0.048217
     89 H38         2.9310    1.3450    0.7290 ho        1 MOL      0.399626
     90 H39         2.4800    1.3390   -1.9440 hc        1 MOL      0.128323
     91 H40         2.7470   -0.1380   -1.0510 hc        1 MOL      0.128323
     92 H41         1.3560    0.0140   -2.0380 hc        1 MOL      0.128323
     93 N9         -1.8990    0.7740   -0.2440 n         1 MOL     -0.238858
     94 C29        -2.8360   -0.2680   -0.6470 c3        1 MOL     -0.134137
     95 C30        -4.2570    0.2190   -1.0900 c         1 MOL      0.546943
     96 O16        -4.9520   -0.3650   -1.9140 o         1 MOL     -0.518787
     97 C31        -2.9780   -1.3870    0.4770 c3        1 MOL      0.126082
     98 C32        -1.6450   -2.2010    0.5610 c3        1 MOL      0.107770
     99 C33        -4.1920   -2.3760    0.2040 c3        1 MOL     -0.325501
    100 C34        -1.5780   -3.2020    1.6980 c3        1 MOL     -0.302768
    101 H42        -1.7510    1.0100    0.7290 hn        1 MOL      0.220313
    102 H43        -2.5450   -0.8360   -1.5230 h1        1 MOL      0.094505
    103 H44        -3.1470   -0.8420    1.4050 hc        1 MOL      0.023045
    104 H45        -0.8670   -1.4570    0.7830 hc        1 MOL     -0.010606
    105 H46        -1.2960   -2.7160   -0.3350 hc        1 MOL     -0.010606
    106 H47        -3.9860   -2.9680   -0.6820 hc        1 MOL      0.097105
    107 H48        -4.3340   -2.9070    1.1480 hc        1 MOL      0.097105
    108 H49        -5.1360   -1.8880   -0.0040 hc        1 MOL      0.097105
    109 H50        -1.9790   -2.9000    2.6600 hc        1 MOL      0.067313
    110 H51        -2.1320   -4.1100    1.4630 hc        1 MOL      0.067313
    111 H52        -0.5280   -3.4670    1.7550 hc        1 MOL      0.067313
    112 N10        -4.7630    1.2890   -0.4660 n         1 MOL     -0.340925
    113 C35        -6.1880    1.6940   -0.4040 c3        1 MOL     -0.094220
    114 C36        -6.7260    1.6820    0.9870 c         1 MOL      0.506054
    115 O17        -5.9910    2.0700    1.8980 o         1 MOL     -0.498693
    116 C37        -6.4330    3.1450   -0.9540 c3        1 MOL      0.440248
    117 C38        -5.4800    4.2420   -0.4180 c3        1 MOL     -0.336686
    118 O18        -6.1140    3.1460   -2.3260 oh        1 MOL     -0.635060
    119 H53        -4.1200    1.8670    0.0640 hn        1 MOL      0.191099
    120 H54        -6.7650    0.9870   -1.0010 h1        1 MOL      0.131451
    121 H55        -7.4630    3.4600   -0.7820 h1        1 MOL     -0.001764
    122 H56        -5.1850    3.3840   -2.3240 ho        1 MOL      0.413336
    123 H57        -5.2910    5.0250   -1.1560 hc        1 MOL      0.090414
    124 H58        -5.9290    4.6990    0.4700 hc        1 MOL      0.090414
    125 H59        -4.5560    3.7570   -0.0850 hc        1 MOL      0.090414
    126 N11        -8.0440    1.3540    1.2610 n         1 MOL     -0.476309
    127 C39        -8.7240    1.3030    2.5680 c3        1 MOL     -0.042557
    128 C40        -9.9450    0.3350    2.5830 c         1 MOL      0.566517
    129 O19       -10.2730   -0.3040    3.6110 o         1 MOL     -0.572168
    130 C41        -9.2100    2.6980    2.8940 c3        1 MOL      0.303542
    131 C42        -9.1490    2.7850    4.4030 c3        1 MOL     -0.366477
    132 O20       -10.5250    3.0730    2.5620 oh        1 MOL     -0.577539
    133 H60        -8.5880    1.1130    0.4480 hn        1 MOL      0.220810
    134 H61        -7.9750    1.0560    3.3200 h1        1 MOL      0.125652
    135 H62        -8.4220    3.3590    2.5400 h1        1 MOL      0.032192
    136 H63       -10.4470    3.5080    1.7140 ho        1 MOL      0.368920
    137 H64        -8.1240    2.6530    4.7610 hc        1 MOL      0.099393
    138 H65        -9.4640    3.7840    4.7130 hc        1 MOL      0.099393
    139 H66        -9.8680    2.1200    4.8860 hc        1 MOL      0.099393
    140 N12       -10.6840    0.2380    1.4650 n         1 MOL     -0.412077
    141 C43       -11.8590   -0.6970    1.4150 c3        1 MOL      0.030945
    142 C44       -11.9390   -1.2640    0.0020 c         1 MOL      0.546780
    143 O21       -11.4120   -0.6550   -0.9440 o         1 MOL     -0.505771
    144 C45       -13.2090   -0.0440    1.8150 c3        1 MOL     -0.326743
    145 C46       -13.2840    0.3240    3.3460 c3        1 MOL      0.037076
    146 C47       -14.7580    0.3530    3.8340 c3        1 MOL     -0.093064
    147 C48       -15.4160    1.6140    3.3540 c3        1 MOL      0.027621
    148 N13       -16.8940    1.4770    3.5050 n4        1 MOL     -0.141517
    149 H67       -10.5380    0.9550    0.7780 hn        1 MOL      0.285608
    150 H68       -11.7770   -1.5670    2.0760 h1        1 MOL      0.114498
    151 H69       -14.0410   -0.7170    1.6040 hc        1 MOL      0.120183
    152 H70       -13.4270    0.8580    1.2450 hc        1 MOL      0.120183
    153 H71       -12.8870    1.3110    3.5480 hc        1 MOL      0.076107
    154 H72       -12.7820   -0.4000    3.9880 hc        1 MOL      0.076107
    155 H73       -14.7720    0.3150    4.9230 hc        1 MOL      0.039603
    156 H74       -15.2430   -0.5160    3.3960 hc        1 MOL      0.039603
    157 H75       -15.2310    1.8480    2.3040 hx        1 MOL      0.071898
    158 H76       -15.1250    2.3910    4.0690 hx        1 MOL      0.071898
    159 H77       -17.3350    0.6980    3.0320 hn        1 MOL      0.221491
    160 H78       -17.1700    1.4890    4.4730 hn        1 MOL      0.221491
    161 H79       -17.3490    2.3060    3.1360 hn        1 MOL      0.221491
    162 N14       -12.4200   -2.4550   -0.1580 n         1 MOL     -0.475619
    163 C49       -12.4710   -3.0520   -1.4760 c3        1 MOL      0.115516
    164 C50       -11.1470   -3.1970   -2.2010 c         1 MOL      0.399457
    165 O22       -11.0280   -2.8180   -3.3500 o         1 MOL     -0.482078
    166 C51       -13.2810   -4.4120   -1.2970 c3        1 MOL     -0.084633
    167 C52       -13.6710   -5.0020   -2.6810 c3        1 MOL     -0.169216
    168 C53       -14.8120   -4.3570   -3.4540 c         1 MOL      0.674896
    169 O23       -15.1870   -3.1830   -3.1230 o         1 MOL     -0.651075
    170 O24       -15.3500   -4.9750   -4.4280 o         1 MOL     -0.651075
    171 H80       -12.7410   -2.9210    0.6890 hn        1 MOL      0.266427
    172 H81       -13.0540   -2.3780   -2.1020 h1        1 MOL      0.102408
    173 H82       -14.0980   -4.1750   -0.6170 hc        1 MOL      0.029835
    174 H83       -12.7100   -5.1630   -0.7460 hc        1 MOL      0.029835
    175 H84       -13.9800   -6.0330   -2.4920 hc        1 MOL      0.049914
    176 H85       -12.7870   -5.1510   -3.3060 hc        1 MOL      0.049914
    177 N15       -10.0850   -3.8650   -1.6550 n         1 MOL     -0.359807
    178 C54        -9.9610   -4.5300   -0.3250 c3        1 MOL      0.014107
    179 H86        -9.1880   -5.2970   -0.3740 h1        1 MOL      0.030929
    180 H87        -9.6890   -3.7900    0.4280 h1        1 MOL      0.030929
    181 H88       -10.9120   -4.9890   -0.0570 h1        1 MOL      0.030929
    182 H89        -9.2460   -3.8800   -2.2120 hn        1 MOL      0.280182
    183 Ca1         6.5010   -3.3270   -1.2560 Ca        1 MOL      1.800215
    184 O25         6.6780   -3.9210   -3.8420 oh        1 MOL     -0.841811
    185 H90         7.5320   -4.2300   -4.1630 ho        1 MOL      0.418951
    186 H91         6.1360   -3.8560   -4.6300 ho        1 MOL      0.418951
    187 O26         4.0390   -4.7650   -1.4860 oh        1 MOL     -0.841811
    188 H92         3.3340   -4.7540   -0.8310 ho        1 MOL      0.418951
    189 H93         3.5760   -4.8120   -2.3260 ho        1 MOL      0.418951
    190 O27         5.1670   -1.8700    0.7160 oh        1 MOL     -0.841811
    191 H94         5.1880   -0.9250    0.7900 ho        1 MOL      0.418951
    192 H95         4.7410   -2.1610    1.5230 ho        1 MOL      0.418951
    193 O28         4.5390   -2.0170   -2.3080 oh        1 MOL     -0.841811
    194 H96         4.5980   -1.1060   -2.5930 ho        1 MOL      0.418951
    195 H97         3.5980   -2.2120   -2.3470 ho        1 MOL      0.418951
    196 O29         6.8010   -6.1220   -1.9710 oh        1 MOL     -0.841811
    197 H98         6.4830   -6.6670   -2.6890 ho        1 MOL      0.418951
    198 H99         6.5230   -6.5860   -1.1820 ho        1 MOL      0.418951
    199 O30         6.3760   -4.9080    0.9280 oh        1 MOL     -0.841811
    200 H100        6.7320   -5.7790    1.1240 ho        1 MOL      0.418951
    201 H101        5.6470   -4.8060    1.5360 ho        1 MOL      0.418951
@<TRIPOS>BOND
     1    1    2 1   
     2    1    4 1   
     3    1    5 1   
     4    1    6 1   
     5    2    3 2   
     6    2    7 1   
     7    7    8 1   
     8    7   15 1   
     9    8    9 1   
    10    8   11 1   
    11    8   16 1   
    12    9   10 2   
    13    9   19 1   
    14   11   12 1   
    15   11   17 1   
    16   11   18 1   
    17   12   13 1   
    18   12   14 1   
    19   19   20 1   
    20   19   28 1   
    21   20   21 1   
    22   20   23 1   
    23   20   29 1   
    24   21   22 2   
    25   21   41 1   
    26   23   24 1   
    27   23   30 1   
    28   23   31 1   
    29   24   25 1   
    30   24   32 1   
    31   24   33 1   
    32   25   26 1   
    33   25   34 1   
    34   25   35 1   
    35   26   27 1   
    36   26   36 1   
    37   26   37 1   
    38   27   38 1   
    39   27   39 1   
    40   27   40 1   
    41   41   42 1   
    42   41   49 1   
    43   42   43 1   
    44   42   45 1   
    45   42   50 1   
    46   43   44 2   
    47   43   53 1   
    48   45   46 1   
    49   45   51 1   
    50   45   52 1   
    51   46   47 1   
    52   46   48 1   
    53   53   54 1   
    54   53   57 1   
    55   54   55 1   
    56   54   58 1   
    57   54   59 1   
    58   55   56 2   
    59   55   60 1   
    60   60   61 1   
    61   60   68 1   
    62   61   62 1   
    63   61   64 1   
    64   61   69 1   
    65   62   63 2   
    66   62   72 1   
    67   64   65 1   
    68   64   70 1   
    69   64   71 1   
    70   65   66 1   
    71   65   67 1   
    72   72   73 1   
    73   72   76 1   
    74   73   74 1   
    75   73   77 1   
    76   73   78 1   
    77   74   75 2   
    78   74   79 1   
    79   79   80 1   
    80   79   86 1   
    81   80   81 1   
    82   80   83 1   
    83   80   87 1   
    84   81   82 2   
    85   81   93 1   
    86   83   84 1   
    87   83   85 1   
    88   83   88 1   
    89   84   90 1   
    90   84   91 1   
    91   84   92 1   
    92   85   89 1   
    93   93   94 1   
    94   93  101 1   
    95   94   95 1   
    96   94   97 1   
    97   94  102 1   
    98   95   96 2   
    99   95  112 1   
   100   97   98 1   
   101   97   99 1   
   102   97  103 1   
   103   98  100 1   
   104   98  104 1   
   105   98  105 1   
   106   99  106 1   
   107   99  107 1   
   108   99  108 1   
   109  100  109 1   
   110  100  110 1   
   111  100  111 1   
   112  112  113 1   
   113  112  119 1   
   114  113  114 1   
   115  113  116 1   
   116  113  120 1   
   117  114  115 2   
   118  114  126 1   
   119  116  117 1   
   120  116  118 1   
   121  116  121 1   
   122  117  123 1   
   123  117  124 1   
   124  117  125 1   
   125  118  122 1   
   126  126  127 1   
   127  126  133 1   
   128  127  128 1   
   129  127  130 1   
   130  127  134 1   
   131  128  129 2   
   132  128  140 1   
   133  130  131 1   
   134  130  132 1   
   135  130  135 1   
   136  131  137 1   
   137  131  138 1   
   138  131  139 1   
   139  132  136 1   
   140  140  141 1   
   141  140  149 1   
   142  141  142 1   
   143  141  144 1   
   144  141  150 1   
   145  142  143 2   
   146  142  162 1   
   147  144  145 1   
   148  144  151 1   
   149  144  152 1   
   150  145  146 1   
   151  145  153 1   
   152  145  154 1   
   153  146  147 1   
   154  146  155 1   
   155  146  156 1   
   156  147  148 1   
   157  147  157 1   
   158  147  158 1   
   159  148  159 1   
   160  148  160 1   
   161  148  161 1   
   162  162  163 1   
   163  162  171 1   
   164  163  164 1   
   165  163  166 1   
   166  163  172 1   
   167  164  165 2   
   168  164  177 1   
   169  166  167 1   
   170  166  173 1   
   171  166  174 1   
   172  167  168 1   
   173  167  175 1   
   174  167  176 1   
   175  168  169 1   
   176  168  170 1   
   177  177  178 1   
   178  177  182 1   
   179  178  179 1   
   180  178  180 1   
   181  178  181 1   
   182  184  185 1   
   183  184  186 1   
   184  187  188 1   
   185  187  189 1   
   186  190  191 1   
   187  190  192 1   
   188  193  194 1   
   189  193  195 1   
   190  196  197 1   
   191  196  198 1   
   192  199  200 1   
   193  199  201 1   
@<TRIPOS>SUBSTRUCTURE
     1 MOL         1 TEMP              0 ****  ****    0 ROOT
