@<TRIPOS>MOLECULE
MOL
  188   182     1     0     0
SMALL
resp


@<TRIPOS>ATOM
      1 C1          0.8870    1.6330    2.8310 c3        1 MOL     -0.317690
      2 C2          2.0800    1.7060    1.8160 c         1 MOL      0.601457
      3 O1          1.8680    2.0910    0.6350 o         1 MOL     -0.579081
      4 H1          1.2630    1.3480    3.8130 hc        1 MOL      0.087477
      5 H2          0.4040    2.6080    2.8960 hc        1 MOL      0.087477
      6 H3          0.1640    0.8920    2.4900 hc        1 MOL      0.087477
      7 N1          3.2960    1.3740    2.1790 n         1 MOL     -0.448324
      8 C3          4.5420    1.3820    1.3590 c3        1 MOL      0.035872
      9 C4          5.4140    0.0860    1.2260 c         1 MOL      0.490827
     10 O2          6.4640    0.0610    0.6280 o         1 MOL     -0.391223
     11 C5          5.4150    2.6210    1.7920 c3        1 MOL     -0.193344
     12 C6          5.9560    2.5580    3.2400 c         1 MOL      0.683512
     13 O3          6.8000    3.4310    3.5640 o         1 MOL     -0.679501
     14 O4          5.5270    1.7940    4.1170 o         1 MOL     -0.679501
     15 H4          3.3280    1.0040    3.1220 hn        1 MOL      0.248232
     16 H5          4.2900    1.6210    0.3250 h1        1 MOL      0.065348
     17 H6          4.8010    3.5120    1.6820 hc        1 MOL      0.096115
     18 H7          6.2990    2.6520    1.1440 hc        1 MOL      0.096115
     19 N2          5.0580   -0.9180    2.0200 n         1 MOL     -0.503195
     20 C7          5.8190   -2.1680    2.3270 c3        1 MOL      0.028383
     21 C8          6.5360   -2.8330    1.0940 c         1 MOL      0.404050
     22 O5          7.7400   -3.2520    1.0380 o         1 MOL     -0.488692
     23 C9          6.8220   -2.0040    3.4340 c3        1 MOL     -0.131533
     24 C10         6.0880   -1.8630    4.8090 c3        1 MOL      0.291329
     25 C11         6.9910   -1.5720    6.0040 c3        1 MOL     -0.453530
     26 C12         7.8150   -0.3170    5.7900 c3        1 MOL      0.225428
     27 N3          6.9600    0.8220    6.0250 n4        1 MOL     -0.393579
     28 H8          4.2780   -0.7170    2.6310 hn        1 MOL      0.296582
     29 H9          5.0540   -2.8610    2.6640 h1        1 MOL      0.067175
     30 H10         7.3750   -1.0840    3.2210 hc        1 MOL      0.072487
     31 H11         7.4780   -2.8620    3.5510 hc        1 MOL      0.072487
     32 H12         5.4960   -2.7710    4.9570 hc        1 MOL     -0.040194
     33 H13         5.3390   -1.0870    4.7720 hc        1 MOL     -0.040194
     34 H14         7.6760   -2.4250    6.0170 hc        1 MOL      0.121424
     35 H15         6.4640   -1.5040    6.9460 hc        1 MOL      0.121424
     36 H16         8.2010   -0.2990    4.7740 hx        1 MOL      0.033681
     37 H17         8.6740   -0.2580    6.4610 hx        1 MOL      0.033681
     38 H18         6.5980    0.9780    5.1000 hn        1 MOL      0.312647
     39 H19         6.2450    0.6120    6.7100 hn        1 MOL      0.312647
     40 H20         7.4450    1.6450    6.3580 hn        1 MOL      0.312647
     41 N4          5.7180   -2.7890   -0.0010 n         1 MOL     -0.193385
     42 C13         5.9730   -3.2990   -1.3540 c3        1 MOL      0.032676
     43 C14         5.8240   -2.1750   -2.3950 c         1 MOL      0.583861
     44 O6          5.7870   -2.3930   -3.5830 o         1 MOL     -0.565321
     45 C15         5.0870   -4.5750   -1.7170 c3        1 MOL     -0.219360
     46 C16         3.6120   -4.4290   -1.5240 c         1 MOL      0.633793
     47 O7          3.0840   -5.1460   -0.6670 o         1 MOL     -0.727401
     48 O8          2.9340   -3.6070   -2.1660 o         1 MOL     -0.727401
     49 H21         4.8730   -2.2730    0.2100 hn        1 MOL      0.174134
     50 H22         7.0380   -3.5340   -1.3650 h1        1 MOL      0.072802
     51 H23         5.5000   -5.3760   -1.1050 hc        1 MOL      0.077574
     52 H24         5.2400   -4.7140   -2.7930 hc        1 MOL      0.077574
     53 N5          5.7210   -0.9070   -2.0000 n         1 MOL     -0.383058
     54 C17         5.5700    0.2810   -2.9040 c3        1 MOL      0.068346
     55 C18         6.5370    1.3870   -2.4010 c         1 MOL      0.389578
     56 O9          7.7110    1.0860   -2.1770 o         1 MOL     -0.502703
     57 H25         5.9810   -0.6780   -1.0460 hn        1 MOL      0.159947
     58 H26         4.5540    0.6650   -2.8850 h1        1 MOL      0.088698
     59 H27         5.7920    0.0480   -3.9460 h1        1 MOL      0.088698
     60 N6          6.1920    2.7040   -2.3180 n         1 MOL     -0.447797
     61 C19         4.8370    3.3070   -2.5220 c3        1 MOL      0.297585
     62 C20         4.5780    4.4350   -1.5280 c         1 MOL      0.519408
     63 O10         5.4590    4.9080   -0.8080 o         1 MOL     -0.550307
     64 C21         4.8490    3.8710   -3.9260 c3        1 MOL     -0.459688
     65 C22         4.7100    2.8030   -5.0450 c         1 MOL      0.682287
     66 N7          5.4140    2.8770   -6.1260 n         1 MOL     -0.752849
     67 O11         3.8940    1.8860   -4.9740 o         1 MOL     -0.554905
     68 H28         6.9180    3.2500   -1.8680 hn        1 MOL      0.303478
     69 H29         4.0550    2.5490   -2.5370 h1        1 MOL      0.018163
     70 H30         5.7040    4.5410   -4.0120 hc        1 MOL      0.121453
     71 H31         3.9260    4.4290   -4.1270 hc        1 MOL      0.121453
     72 H32         6.0080    3.6610   -6.3460 hn        1 MOL      0.361759
     73 H33         5.4080    2.0580   -6.7060 hn        1 MOL      0.361759
     74 N8          3.3280    4.8780   -1.3930 n         1 MOL     -0.369224
     75 C23         2.1290    4.3710   -2.0020 c3        1 MOL     -0.289654
     76 C24         0.9470    4.9790   -1.2990 c         1 MOL      0.816603
     77 O12         0.9330    6.2060   -1.0110 o         1 MOL     -0.585406
     78 H34         3.1840    5.5500   -0.6550 hn        1 MOL      0.285382
     79 H35         2.0150    3.2890   -1.9340 h1        1 MOL      0.114923
     80 H36         2.0070    4.7220   -3.0190 h1        1 MOL      0.114923
     81 N9         -0.0760    4.1580   -1.1440 n         1 MOL     -0.606255
     82 C25        -1.4220    4.7040   -0.6760 c3        1 MOL      0.028168
     83 C26        -2.3540    3.5830   -0.1170 c         1 MOL      0.699023
     84 O13        -2.2970    2.4500   -0.4840 o         1 MOL     -0.526840
     85 C27        -2.1470    5.4750   -1.8470 c3        1 MOL     -0.148603
     86 C28        -3.1830    6.4120   -1.3060 ca        1 MOL      0.049850
     87 C29        -4.5320    6.2370   -1.6950 ca        1 MOL     -0.150357
     88 C30        -2.8800    7.4280   -0.3910 ca        1 MOL     -0.150357
     89 C31        -5.5410    7.0690   -1.2080 ca        1 MOL     -0.237428
     90 C32        -3.8530    8.2600    0.1420 ca        1 MOL     -0.237428
     91 C33        -5.2160    8.0350   -0.1940 ca        1 MOL      0.333212
     92 O14        -6.1770    8.8240    0.3680 oh        1 MOL     -0.505424
     93 H37         0.0770    3.1550   -1.1820 hn        1 MOL      0.320289
     94 H38        -1.2840    5.3770    0.1660 h1        1 MOL      0.038129
     95 H39        -2.5780    4.8260   -2.6110 hc        1 MOL      0.084252
     96 H40        -1.3990    6.0560   -2.3730 hc        1 MOL      0.084252
     97 H41        -4.8190    5.4730   -2.3990 ha        1 MOL      0.138734
     98 H42        -1.8510    7.6570   -0.1500 ha        1 MOL      0.138734
     99 H43        -6.5880    6.8550   -1.3660 ha        1 MOL      0.137586
    100 H44        -3.6210    9.0110    0.8920 ha        1 MOL      0.137586
    101 H45        -5.8900    9.3070    1.1540 ho        1 MOL      0.376017
    102 N10        -3.1690    4.0040    0.8230 n         1 MOL     -0.532928
    103 C34        -4.1640    3.1150    1.4530 c3        1 MOL     -0.087890
    104 C35        -5.3690    2.6590    0.5310 c         1 MOL      0.462711
    105 O15        -5.6980    3.3340   -0.4530 o         1 MOL     -0.456313
    106 C36        -4.7040    3.8550    2.7920 c3        1 MOL      0.086340
    107 C37        -5.4720    5.1640    2.3840 c3        1 MOL      0.247030
    108 C38        -5.6370    2.9640    3.6270 c3        1 MOL     -0.250924
    109 C39        -5.4250    6.1530    3.5160 c3        1 MOL     -0.303596
    110 H46        -3.0980    4.9800    1.0610 hn        1 MOL      0.309153
    111 H47        -3.6950    2.2270    1.8660 h1        1 MOL      0.111079
    112 H48        -3.8550    4.2720    3.3340 hc        1 MOL      0.028991
    113 H49        -6.5120    4.9330    2.1500 hc        1 MOL     -0.038310
    114 H50        -5.0000    5.6540    1.5370 hc        1 MOL     -0.038310
    115 H51        -5.1820    2.0010    3.8470 hc        1 MOL      0.069586
    116 H52        -5.9190    3.4190    4.5730 hc        1 MOL      0.069586
    117 H53        -6.5550    2.8390    3.0550 hc        1 MOL      0.069586
    118 H54        -4.3660    6.2870    3.7660 hc        1 MOL      0.058323
    119 H55        -5.8830    7.1020    3.2180 hc        1 MOL      0.058323
    120 H56        -5.9300    5.7380    4.3890 hc        1 MOL      0.058323
    121 N11        -5.9760    1.4250    0.6990 n         1 MOL     -0.364998
    122 C40        -6.7410    0.6390   -0.3230 c3        1 MOL      0.051078
    123 C41        -5.8970   -0.3630   -1.1230 c         1 MOL      0.726420
    124 O16        -4.7930   -0.7500   -0.6380 o         1 MOL     -0.549320
    125 C42        -7.8750   -0.1020    0.4150 c3        1 MOL     -0.180587
    126 O17        -7.3730   -0.9510    1.4860 oh        1 MOL     -0.512868
    127 H57        -5.6040    0.8110    1.4130 hn        1 MOL      0.272098
    128 H58        -7.2180    1.3290   -1.0230 h1        1 MOL      0.074613
    129 H59        -8.5600   -0.6760   -0.2090 h1        1 MOL      0.103826
    130 H60        -8.4110    0.6530    0.9840 h1        1 MOL      0.103826
    131 H61        -8.1190   -1.5250    1.6900 ho        1 MOL      0.426706
    132 N12        -6.2740   -0.5840   -2.3900 n         1 MOL     -0.647548
    133 C43        -5.6130   -1.5900   -3.2510 c3        1 MOL      0.228402
    134 C44        -5.5770   -3.0210   -2.6550 c         1 MOL      0.559445
    135 O18        -4.5480   -3.6650   -2.8220 o         1 MOL     -0.563269
    136 C45        -4.2630   -1.0440   -3.6780 c3        1 MOL     -0.299320
    137 H62        -6.9890    0.0160   -2.7930 hn        1 MOL      0.321617
    138 H63        -6.2150   -1.8150   -4.1290 h1        1 MOL      0.024925
    139 H64        -3.7440   -0.7890   -2.7540 hc        1 MOL      0.097791
    140 H65        -3.7200   -1.7660   -4.2860 hc        1 MOL      0.097791
    141 H66        -4.2860   -0.1160   -4.2620 hc        1 MOL      0.097791
    142 N13        -6.6890   -3.4130   -2.0630 n         1 MOL     -0.434558
    143 C46        -6.7840   -4.7210   -1.4020 c3        1 MOL      0.297299
    144 C47        -5.7000   -4.9760   -0.3360 c         1 MOL      0.389580
    145 O19        -4.7270   -5.7870   -0.5570 o         1 MOL     -0.445194
    146 C48        -6.8610   -5.8580   -2.3840 c3        1 MOL     -0.599766
    147 H67        -7.5110   -2.8310   -2.1840 hn        1 MOL      0.239958
    148 H68        -7.7500   -4.7460   -0.8950 h1        1 MOL      0.034914
    149 H69        -6.0340   -5.8710   -3.0960 hc        1 MOL      0.163444
    150 H70        -6.8760   -6.7520   -1.7610 hc        1 MOL      0.163444
    151 H71        -7.7750   -5.7530   -2.9690 hc        1 MOL      0.163444
    152 N14        -5.7970   -4.2360    0.7760 n         1 MOL     -0.471758
    153 C49        -4.7550   -4.3450    1.8080 c3        1 MOL      0.103768
    154 C50        -5.2810   -4.1650    3.2350 c         1 MOL      0.280941
    155 O20        -4.8200   -4.8980    4.1410 o         1 MOL     -0.503614
    156 C51        -3.5840   -3.4550    1.4110 c3        1 MOL      0.566200
    157 C52        -2.3300   -3.7940    2.3050 c3        1 MOL     -0.687734
    158 C53        -1.5230   -4.9320    1.7180 c         1 MOL      0.908138
    159 O21        -0.5820   -4.6590    0.9520 o         1 MOL     -0.773631
    160 O22        -1.8650   -6.1310    1.8390 o         1 MOL     -0.773631
    161 H72        -6.4990   -3.5110    0.8690 hn        1 MOL      0.187298
    162 H73        -4.3430   -5.3500    1.7490 h1        1 MOL      0.158066
    163 H74        -3.9470   -2.4400    1.5140 hc        1 MOL     -0.146897
    164 H75        -3.3250   -3.7290    0.3840 hc        1 MOL     -0.146897
    165 H76        -2.7150   -4.0130    3.3030 hc        1 MOL      0.133732
    166 H77        -1.7620   -2.8690    2.3440 hc        1 MOL      0.133732
    167 N15        -6.2430   -3.3280    3.5080 n         1 MOL     -0.076054
    168 C54        -6.8810   -3.1530    4.8260 c3        1 MOL     -0.112330
    169 H78        -6.4890   -3.8970    5.5200 h1        1 MOL      0.070841
    170 H79        -6.6650   -2.1540    5.2050 h1        1 MOL      0.070841
    171 H80        -7.9590   -3.2810    4.7280 h1        1 MOL      0.070841
    172 H81        -6.5900   -2.6940    2.8120 hn        1 MOL      0.100823
    173 Ca1         0.6070   -4.8040   -1.4500 Ca        1 MOL      1.731865
    174 O23         1.6480   -6.4420   -3.1730 oh        1 MOL     -0.818739
    175 H82         1.3200   -6.8830   -3.9520 ho        1 MOL      0.411947
    176 H83         2.5410   -6.7790   -3.0580 ho        1 MOL      0.411947
    177 O24        -2.1260   -4.7940   -1.6670 oh        1 MOL     -0.818739
    178 H84        -2.3710   -4.0240   -2.1930 ho        1 MOL      0.411947
    179 H85        -2.9660   -5.1630   -1.3920 ho        1 MOL      0.411947
    180 O25         0.0960   -2.1100   -0.9500 oh        1 MOL     -0.818739
    181 H86        -0.3900   -1.3310   -1.2250 ho        1 MOL      0.411947
    182 H87         0.1050   -2.0590    0.0070 ho        1 MOL      0.411947
    183 O26        -0.2320   -3.9520   -3.9080 oh        1 MOL     -0.818739
    184 H88        -0.0160   -3.1750   -4.4310 ho        1 MOL      0.411947
    185 H89        -0.7830   -4.4830   -4.4790 ho        1 MOL      0.411947
    186 O27         0.4120   -7.2890   -0.1490 oh        1 MOL     -0.818739
    187 H90        -0.4760   -7.6590   -0.0990 ho        1 MOL      0.411947
    188 H91         0.9540   -7.9310    0.3170 ho        1 MOL      0.411947
@<TRIPOS>BOND
     1    1    2 1   
     2    1    4 1   
     3    1    5 1   
     4    1    6 1   
     5    2    3 2   
     6    2    7 1   
     7    7    8 1   
     8    7   15 1   
     9    8    9 1   
    10    8   11 1   
    11    8   16 1   
    12    9   10 2   
    13    9   19 1   
    14   11   12 1   
    15   11   17 1   
    16   11   18 1   
    17   12   13 1   
    18   12   14 1   
    19   19   20 1   
    20   19   28 1   
    21   20   21 1   
    22   20   23 1   
    23   20   29 1   
    24   21   22 2   
    25   21   41 1   
    26   23   24 1   
    27   23   30 1   
    28   23   31 1   
    29   24   25 1   
    30   24   32 1   
    31   24   33 1   
    32   25   26 1   
    33   25   34 1   
    34   25   35 1   
    35   26   27 1   
    36   26   36 1   
    37   26   37 1   
    38   27   38 1   
    39   27   39 1   
    40   27   40 1   
    41   41   42 1   
    42   41   49 1   
    43   42   43 1   
    44   42   45 1   
    45   42   50 1   
    46   43   44 2   
    47   43   53 1   
    48   45   46 1   
    49   45   51 1   
    50   45   52 1   
    51   46   47 1   
    52   46   48 1   
    53   53   54 1   
    54   53   57 1   
    55   54   55 1   
    56   54   58 1   
    57   54   59 1   
    58   55   56 2   
    59   55   60 1   
    60   60   61 1   
    61   60   68 1   
    62   61   62 1   
    63   61   64 1   
    64   61   69 1   
    65   62   63 2   
    66   62   74 1   
    67   64   65 1   
    68   64   70 1   
    69   64   71 1   
    70   65   66 1   
    71   65   67 2   
    72   66   72 1   
    73   66   73 1   
    74   74   75 1   
    75   74   78 1   
    76   75   76 1   
    77   75   79 1   
    78   75   80 1   
    79   76   77 2   
    80   76   81 1   
    81   81   82 1   
    82   81   93 1   
    83   82   83 1   
    84   82   85 1   
    85   82   94 1   
    86   83   84 2   
    87   83  102 1   
    88   85   86 1   
    89   85   95 1   
    90   85   96 1   
    91   86   87 ar  
    92   86   88 ar  
    93   87   89 ar  
    94   87   97 1   
    95   88   90 ar  
    96   88   98 1   
    97   89   91 ar  
    98   89   99 1   
    99   90   91 ar  
   100   90  100 1   
   101   91   92 1   
   102   92  101 1   
   103  102  103 1   
   104  102  110 1   
   105  103  104 1   
   106  103  106 1   
   107  103  111 1   
   108  104  105 2   
   109  104  121 1   
   110  106  107 1   
   111  106  108 1   
   112  106  112 1   
   113  107  109 1   
   114  107  113 1   
   115  107  114 1   
   116  108  115 1   
   117  108  116 1   
   118  108  117 1   
   119  109  118 1   
   120  109  119 1   
   121  109  120 1   
   122  121  122 1   
   123  121  127 1   
   124  122  123 1   
   125  122  125 1   
   126  122  128 1   
   127  123  124 2   
   128  123  132 1   
   129  125  126 1   
   130  125  129 1   
   131  125  130 1   
   132  126  131 1   
   133  132  133 1   
   134  132  137 1   
   135  133  134 1   
   136  133  136 1   
   137  133  138 1   
   138  134  135 2   
   139  134  142 1   
   140  136  139 1   
   141  136  140 1   
   142  136  141 1   
   143  142  143 1   
   144  142  147 1   
   145  143  144 1   
   146  143  146 1   
   147  143  148 1   
   148  144  145 2   
   149  144  152 1   
   150  146  149 1   
   151  146  150 1   
   152  146  151 1   
   153  152  153 1   
   154  152  161 1   
   155  153  154 1   
   156  153  156 1   
   157  153  162 1   
   158  154  155 2   
   159  154  167 1   
   160  156  157 1   
   161  156  163 1   
   162  156  164 1   
   163  157  158 1   
   164  157  165 1   
   165  157  166 1   
   166  158  159 1   
   167  158  160 1   
   168  167  168 1   
   169  167  172 1   
   170  168  169 1   
   171  168  170 1   
   172  168  171 1   
   173  174  175 1   
   174  174  176 1   
   175  177  178 1   
   176  177  179 1   
   177  180  181 1   
   178  180  182 1   
   179  183  184 1   
   180  183  185 1   
   181  186  187 1   
   182  186  188 1   
@<TRIPOS>SUBSTRUCTURE
     1 MOL         1 TEMP              0 ****  ****    0 ROOT
