@<TRIPOS>MOLECULE
MOL
  192   187     1     0     0
SMALL
resp


@<TRIPOS>ATOM
      1 C1         11.8400    5.1480   -2.4000 c3        1 MOL     -0.232026
      2 C2         11.8540    3.9370   -1.4500 c         1 MOL      0.499872
      3 O1         12.8520    3.0880   -1.4490 o         1 MOL     -0.570634
      4 H1         12.4840    5.9310   -1.9990 hc        1 MOL      0.067426
      5 H2         12.2040    4.8450   -3.3810 hc        1 MOL      0.067426
      6 H3         10.8220    5.5270   -2.4910 hc        1 MOL      0.067426
      7 N1         10.7430    3.7600   -0.7090 n         1 MOL      0.059951
      8 C3         10.4230    2.6770    0.2290 c3        1 MOL     -0.584341
      9 C4          9.1550    1.9040   -0.2670 c         1 MOL      0.516901
     10 O2          8.2150    2.5000   -0.7730 o         1 MOL     -0.637263
     11 C5         10.2110    3.1910    1.6370 c3        1 MOL      0.170961
     12 C6          9.7520    4.5800    1.6910 c         1 MOL      0.582192
     13 O3         10.3540    5.4060    2.4160 o         1 MOL     -0.653484
     14 O4          8.7240    4.8720    1.0200 o         1 MOL     -0.653484
     15 H4         10.1160    4.5430   -0.6040 hn        1 MOL      0.049078
     16 H5         11.2440    1.9570    0.2680 h1        1 MOL      0.185870
     17 H6         11.0590    3.0530    2.3140 hc        1 MOL      0.027240
     18 H7          9.5450    2.4970    2.1540 hc        1 MOL      0.027240
     19 N2          9.0900    0.5590    0.0020 n         1 MOL     -0.194043
     20 C7          7.8290   -0.2700   -0.1500 c3        1 MOL     -0.109618
     21 C8          6.7800    0.0020    1.0050 c         1 MOL      0.582001
     22 O5          7.0630   -0.3210    2.1420 o         1 MOL     -0.499851
     23 C9          8.1800   -1.7810   -0.2780 c3        1 MOL     -0.471050
     24 C10         8.8200   -2.0180   -1.6280 c3        1 MOL      0.452115
     25 C11         7.9220   -2.6040   -2.7060 c3        1 MOL     -0.184844
     26 C12         7.6080   -4.0770   -2.4550 c3        1 MOL      0.101654
     27 N3          8.8590   -4.9380   -2.5940 n4        1 MOL     -0.397674
     28 H8          9.9320    0.0460    0.1980 hn        1 MOL      0.248854
     29 H9          7.3820   -0.1700   -1.1430 h1        1 MOL      0.153217
     30 H10         7.2360   -2.3150   -0.2160 hc        1 MOL      0.153238
     31 H11         8.8520   -2.1260    0.5060 hc        1 MOL      0.153238
     32 H12         9.6450   -2.7150   -1.4460 hc        1 MOL     -0.092191
     33 H13         9.2520   -1.0950   -2.0340 hc        1 MOL     -0.092191
     34 H14         8.5260   -2.4660   -3.6000 hc        1 MOL      0.049754
     35 H15         6.9970   -2.0280   -2.8240 hc        1 MOL      0.049754
     36 H16         6.9240   -4.3760   -3.2500 hx        1 MOL      0.074236
     37 H17         6.9970   -4.3220   -1.5880 hx        1 MOL      0.074236
     38 H18         9.5720   -4.7830   -1.9030 hn        1 MOL      0.299138
     39 H19         8.5360   -5.9020   -2.6030 hn        1 MOL      0.299138
     40 H20         9.3840   -4.8130   -3.4390 hn        1 MOL      0.299138
     41 N4          5.5170    0.3970    0.6690 n         1 MOL     -0.451866
     42 C13         4.3540    0.2730    1.5680 c3        1 MOL      0.057616
     43 C14         3.0400    0.2230    0.7270 c         1 MOL      0.538821
     44 O6          3.0540    0.6550   -0.4660 o         1 MOL     -0.511128
     45 C15         4.3330    1.5000    2.5530 c3        1 MOL     -0.382383
     46 C16         4.7450    2.7680    1.8100 c         1 MOL      0.737187
     47 O7          5.9650    3.1350    1.8530 o         1 MOL     -0.665018
     48 O8          3.8280    3.4390    1.2880 o         1 MOL     -0.665018
     49 H21         5.3540    0.6760   -0.2850 hn        1 MOL      0.197252
     50 H22         4.3720   -0.6970    2.0660 h1        1 MOL      0.134595
     51 H23         5.0110    1.3160    3.3870 hc        1 MOL      0.124855
     52 H24         3.2890    1.5860    2.8390 hc        1 MOL      0.124855
     53 N5          1.8150   -0.1570    1.2150 n         1 MOL     -0.501169
     54 C17         1.6960   -0.9400    2.4370 c3        1 MOL      0.029553
     55 C18         2.2110   -2.3580    2.4250 c         1 MOL      0.376169
     56 O9          2.6710   -2.8790    1.3920 o         1 MOL     -0.528858
     57 H25         1.1500   -0.5090    0.5410 hn        1 MOL      0.317889
     58 H26         0.6520   -1.0890    2.7180 h1        1 MOL      0.081582
     59 H27         2.1400   -0.4020    3.2760 h1        1 MOL      0.081582
     60 N6          2.3140   -3.0280    3.6160 n         1 MOL     -0.282679
     61 C19         2.9750   -4.3300    3.7300 c3        1 MOL      0.019711
     62 C20         2.2990   -5.4110    2.8370 c         1 MOL      0.392595
     63 O10         3.0260   -6.3810    2.4790 o         1 MOL     -0.541730
     64 C21         2.8800   -4.8430    5.1800 c3        1 MOL     -0.349428
     65 C22         1.5220   -4.5160    5.7770 c         1 MOL      0.744649
     66 O11         0.6040   -5.3540    5.6260 o         1 MOL     -0.668074
     67 O12         1.2900   -3.4250    6.3470 o         1 MOL     -0.668074
     68 H28         1.8180   -2.6360    4.4040 hn        1 MOL      0.213321
     69 H29         4.0260   -4.2930    3.4550 h1        1 MOL      0.098517
     70 H30         3.5890   -4.3620    5.8620 hc        1 MOL      0.102892
     71 H31         3.1120   -5.9160    5.2090 hc        1 MOL      0.102892
     72 N7          1.0390   -5.3200    2.4540 n         1 MOL     -0.127439
     73 C23         0.4520   -6.1160    1.3690 c3        1 MOL     -0.147760
     74 C24         0.4220   -5.6560   -0.0510 c         1 MOL      0.549225
     75 O13        -0.1590   -6.2840   -0.9190 o         1 MOL     -0.590710
     76 H32         0.3790   -4.6600    2.8330 hn        1 MOL      0.236875
     77 H33        -0.5740   -6.2600    1.6970 h1        1 MOL      0.090797
     78 H34         1.0070   -7.0560    1.3770 h1        1 MOL      0.090797
     79 N8          0.9090   -4.4700   -0.3170 n         1 MOL     -0.172397
     80 C25         1.0120   -3.7890   -1.6090 c3        1 MOL      0.092165
     81 C26         0.3770   -2.3920   -1.5000 c         1 MOL      0.179081
     82 O14         0.1900   -1.8560   -0.4310 o         1 MOL     -0.324035
     83 C27         2.4360   -3.7480   -2.1550 c3        1 MOL      0.359737
     84 C28         3.1640   -5.0170   -2.1650 c3        1 MOL     -0.574173
     85 O15         2.1610   -3.3880   -3.4900 oh        1 MOL     -0.636227
     86 H35         1.3580   -3.9780    0.4400 hn        1 MOL      0.091029
     87 H36         0.3720   -4.3310   -2.3060 h1        1 MOL      0.066678
     88 H37         2.9770   -2.8810   -1.7800 h1        1 MOL      0.005712
     89 H38         2.9490   -2.9770   -3.8500 ho        1 MOL      0.405050
     90 H39         2.4340   -5.7440   -2.5000 hc        1 MOL      0.153349
     91 H40         4.0780   -5.1070   -2.7490 hc        1 MOL      0.153349
     92 H41         3.3890   -5.3860   -1.1620 hc        1 MOL      0.153349
     93 N9         -0.0510   -1.8270   -2.6290 n         1 MOL     -0.135592
     94 C29        -0.5540   -0.4710   -2.8610 c3        1 MOL     -0.066969
     95 C30        -1.9120   -0.3580   -2.0800 c         1 MOL      0.444657
     96 O16        -2.2400    0.7320   -1.5830 o         1 MOL     -0.496939
     97 C31        -0.6770   -0.0460   -4.3790 c3        1 MOL      0.121177
     98 C32         0.5630   -0.2700   -5.2920 c3        1 MOL     -0.038800
     99 C33        -1.0630    1.4340   -4.4580 c3        1 MOL     -0.276506
    100 C34         1.8780    0.1790   -4.6900 c3        1 MOL     -0.395128
    101 H42         0.1830   -2.3210   -3.4730 hn        1 MOL      0.238180
    102 H43         0.1650    0.1650   -2.3420 h1        1 MOL      0.076297
    103 H44        -1.4830   -0.6490   -4.8160 hc        1 MOL     -0.005486
    104 H45         0.4990    0.3200   -6.2100 hc        1 MOL      0.029844
    105 H46         0.5480   -1.3460   -5.4540 hc        1 MOL      0.029844
    106 H47        -2.0750    1.5700   -4.0920 hc        1 MOL      0.091446
    107 H48        -0.3450    2.0600   -3.9370 hc        1 MOL      0.091446
    108 H49        -1.1100    1.7760   -5.4990 hc        1 MOL      0.091446
    109 H50         2.4800    0.4880   -5.5420 hc        1 MOL      0.107544
    110 H51         1.6050    1.0370   -4.0780 hc        1 MOL      0.107544
    111 H52         2.3490   -0.6730   -4.2130 hc        1 MOL      0.107544
    112 N10        -2.6850   -1.4760   -2.0350 n         1 MOL     -0.266067
    113 C35        -3.8410   -1.6290   -1.1840 c3        1 MOL     -0.109674
    114 C36        -5.1410   -2.2310   -1.7770 c         1 MOL      0.600400
    115 O17        -5.1160   -3.2360   -2.5220 o         1 MOL     -0.534861
    116 C37        -3.4600   -2.5260    0.0680 c3        1 MOL      0.378632
    117 C38        -3.1800   -4.0000   -0.3200 c3        1 MOL     -0.304043
    118 O18        -2.2810   -2.0570    0.7000 oh        1 MOL     -0.609120
    119 H53        -2.3710   -2.2830   -2.5610 hn        1 MOL      0.181129
    120 H54        -4.0640   -0.6240   -0.8170 h1        1 MOL      0.103250
    121 H55        -4.3280   -2.4380    0.7290 h1        1 MOL      0.013585
    122 H56        -1.5510   -1.9260    0.0920 ho        1 MOL      0.323658
    123 H57        -2.5000   -4.3680    0.4500 hc        1 MOL      0.078074
    124 H58        -4.0580   -4.6560   -0.2710 hc        1 MOL      0.078074
    125 H59        -2.6670   -4.0250   -1.2810 hc        1 MOL      0.078074
    126 N11        -6.2820   -1.7270   -1.3140 n         1 MOL     -0.577061
    127 C39        -7.5490   -2.2470   -1.8810 c3        1 MOL      0.034426
    128 C40        -8.3970   -1.0470   -2.2450 c         1 MOL      0.579684
    129 O19        -8.5470   -0.8450   -3.4620 o         1 MOL     -0.539429
    130 C41        -8.2180   -3.2740   -0.9720 c3        1 MOL      0.302557
    131 C42        -9.4060   -3.8140   -1.6660 c3        1 MOL     -0.343394
    132 O20        -8.3710   -2.7900    0.3600 oh        1 MOL     -0.617460
    133 H60        -6.3460   -1.0890   -0.5300 hn        1 MOL      0.301214
    134 H61        -7.3380   -2.8090   -2.7840 h1        1 MOL      0.097655
    135 H62        -7.5740   -4.1360   -0.8060 h1        1 MOL      0.027554
    136 H63        -7.6550   -3.3060    0.7540 ho        1 MOL      0.396743
    137 H64       -10.0420   -2.9860   -1.9760 hc        1 MOL      0.091323
    138 H65        -9.1210   -4.3920   -2.5540 hc        1 MOL      0.091323
    139 H66        -9.9960   -4.4050   -0.9680 hc        1 MOL      0.091323
    140 N12        -8.8900   -0.3360   -1.1940 n         1 MOL     -0.359301
    141 C43        -9.8330    0.8190   -1.2210 c3        1 MOL     -0.015805
    142 C44        -9.3970    1.8860   -0.2110 c         1 MOL      0.437139
    143 O21        -8.7750    1.6020    0.8400 o         1 MOL     -0.469250
    144 C45       -11.3250    0.4890   -0.9260 c3        1 MOL     -0.005542
    145 C46       -11.5690   -0.3910    0.3610 c3        1 MOL      0.015318
    146 C47       -12.3420    0.3130    1.4790 c3        1 MOL      0.072929
    147 C48       -12.4580   -0.4960    2.7330 c3        1 MOL     -0.180367
    148 N13       -12.9680   -1.8520    2.5660 n4        1 MOL     -0.123815
    149 H67        -8.5360   -0.6660   -0.3000 hn        1 MOL      0.226027
    150 H68        -9.8240    1.2980   -2.1990 h1        1 MOL      0.071104
    151 H69       -11.6530   -0.1570   -1.7260 hc        1 MOL      0.016052
    152 H70       -12.0190    1.3360   -0.9760 hc        1 MOL      0.016052
    153 H71       -10.6460   -0.7230    0.8420 hc        1 MOL      0.002429
    154 H72       -12.1580   -1.2460    0.0250 hc        1 MOL      0.002429
    155 H73       -13.3670    0.5570    1.1950 hc        1 MOL      0.031336
    156 H74       -11.8420    1.2490    1.7510 hc        1 MOL      0.031336
    157 H75       -13.1820    0.0360    3.3430 hx        1 MOL      0.143025
    158 H76       -11.4410   -0.5440    3.1450 hx        1 MOL      0.143025
    159 H77       -13.0590   -2.3950    3.4110 hn        1 MOL      0.232897
    160 H78       -13.8520   -1.8730    2.0730 hn        1 MOL      0.232897
    161 H79       -12.3290   -2.4050    2.0160 hn        1 MOL      0.232897
    162 N14        -9.7520    3.0960   -0.6040 n         1 MOL     -0.370353
    163 C49        -9.7000    4.3130    0.2470 c3        1 MOL      0.075117
    164 C50        -8.3640    4.5200    0.9450 c         1 MOL      0.345666
    165 O22        -8.3750    4.5100    2.1590 o         1 MOL     -0.501246
    166 C51       -10.3150    5.5980   -0.4240 c3        1 MOL     -0.039192
    167 C52       -10.5390    6.7470    0.6190 c3        1 MOL     -0.180753
    168 C53       -11.7880    6.4210    1.5380 c         1 MOL      0.683453
    169 O23       -11.7050    6.5250    2.7720 o         1 MOL     -0.666897
    170 O24       -12.8220    6.1070    0.9600 o         1 MOL     -0.666897
    171 H80       -10.2800    3.1550   -1.4710 hn        1 MOL      0.296162
    172 H81       -10.3080    4.0470    1.1100 h1        1 MOL      0.106353
    173 H82       -11.2360    5.2300   -0.8820 hc        1 MOL      0.002132
    174 H83        -9.5920    5.8570   -1.1880 hc        1 MOL      0.002132
    175 H84       -10.6370    7.6750    0.0580 hc        1 MOL      0.046749
    176 H85        -9.6110    6.8750    1.1750 hc        1 MOL      0.046749
    177 N15        -7.2120    4.7030    0.3250 n         1 MOL     -0.276040
    178 C54        -7.0100    4.6260   -1.0970 c3        1 MOL      0.040196
    179 H86        -6.6950    5.6000   -1.4720 h1        1 MOL      0.019207
    180 H87        -6.2390    3.8880   -1.3160 h1        1 MOL      0.019207
    181 H88        -7.9410    4.3350   -1.5820 h1        1 MOL      0.019207
    182 H89        -6.4190    4.7150    0.9440 hn        1 MOL      0.267012
    183 Ca1         6.4860    4.6140    0.0070 Ca        1 MOL      1.743360
    184 O25         3.7360    5.6560   -0.2900 oh        1 MOL     -0.917821
    185 H90         3.1860    4.8800   -0.3670 ho        1 MOL      0.444342
    186 H91         3.1180    6.3830   -0.2750 ho        1 MOL      0.444342
    187 O26         6.5620    6.4300    2.0820 oh        1 MOL     -0.917821
    188 H92         6.0900    7.2410    2.2780 ho        1 MOL      0.444342
    189 H93         7.4630    6.6040    2.3430 ho        1 MOL      0.444342
    190 O27         5.2430    2.7680   -1.4590 oh        1 MOL     -0.917821
    191 H94         5.6670    2.3390   -2.2110 ho        1 MOL      0.444342
    192 H95         4.3680    2.9900   -1.7750 ho        1 MOL      0.444342
@<TRIPOS>BOND
     1    1    2 1   
     2    1    4 1   
     3    1    5 1   
     4    1    6 1   
     5    2    3 2   
     6    2    7 1   
     7    7    8 1   
     8    7   15 1   
     9    8    9 1   
    10    8   11 1   
    11    8   16 1   
    12    9   10 2   
    13    9   19 1   
    14   11   12 1   
    15   11   17 1   
    16   11   18 1   
    17   12   13 1   
    18   12   14 1   
    19   19   20 1   
    20   19   28 1   
    21   20   21 1   
    22   20   23 1   
    23   20   29 1   
    24   21   22 2   
    25   21   41 1   
    26   23   24 1   
    27   23   30 1   
    28   23   31 1   
    29   24   25 1   
    30   24   32 1   
    31   24   33 1   
    32   25   26 1   
    33   25   34 1   
    34   25   35 1   
    35   26   27 1   
    36   26   36 1   
    37   26   37 1   
    38   27   38 1   
    39   27   39 1   
    40   27   40 1   
    41   41   42 1   
    42   41   49 1   
    43   42   43 1   
    44   42   45 1   
    45   42   50 1   
    46   43   44 2   
    47   43   53 1   
    48   45   46 1   
    49   45   51 1   
    50   45   52 1   
    51   46   47 1   
    52   46   48 1   
    53   53   54 1   
    54   53   57 1   
    55   54   55 1   
    56   54   58 1   
    57   54   59 1   
    58   55   56 2   
    59   55   60 1   
    60   60   61 1   
    61   60   68 1   
    62   61   62 1   
    63   61   64 1   
    64   61   69 1   
    65   62   63 2   
    66   62   72 1   
    67   64   65 1   
    68   64   70 1   
    69   64   71 1   
    70   65   66 1   
    71   65   67 1   
    72   72   73 1   
    73   72   76 1   
    74   73   74 1   
    75   73   77 1   
    76   73   78 1   
    77   74   75 2   
    78   74   79 1   
    79   79   80 1   
    80   79   86 1   
    81   80   81 1   
    82   80   83 1   
    83   80   87 1   
    84   81   82 2   
    85   81   93 1   
    86   83   84 1   
    87   83   85 1   
    88   83   88 1   
    89   84   90 1   
    90   84   91 1   
    91   84   92 1   
    92   85   89 1   
    93   93   94 1   
    94   93  101 1   
    95   94   95 1   
    96   94   97 1   
    97   94  102 1   
    98   95   96 2   
    99   95  112 1   
   100   97   98 1   
   101   97   99 1   
   102   97  103 1   
   103   98  100 1   
   104   98  104 1   
   105   98  105 1   
   106   99  106 1   
   107   99  107 1   
   108   99  108 1   
   109  100  109 1   
   110  100  110 1   
   111  100  111 1   
   112  112  113 1   
   113  112  119 1   
   114  113  114 1   
   115  113  116 1   
   116  113  120 1   
   117  114  115 2   
   118  114  126 1   
   119  116  117 1   
   120  116  118 1   
   121  116  121 1   
   122  117  123 1   
   123  117  124 1   
   124  117  125 1   
   125  118  122 1   
   126  126  127 1   
   127  126  133 1   
   128  127  128 1   
   129  127  130 1   
   130  127  134 1   
   131  128  129 2   
   132  128  140 1   
   133  130  131 1   
   134  130  132 1   
   135  130  135 1   
   136  131  137 1   
   137  131  138 1   
   138  131  139 1   
   139  132  136 1   
   140  140  141 1   
   141  140  149 1   
   142  141  142 1   
   143  141  144 1   
   144  141  150 1   
   145  142  143 2   
   146  142  162 1   
   147  144  145 1   
   148  144  151 1   
   149  144  152 1   
   150  145  146 1   
   151  145  153 1   
   152  145  154 1   
   153  146  147 1   
   154  146  155 1   
   155  146  156 1   
   156  147  148 1   
   157  147  157 1   
   158  147  158 1   
   159  148  159 1   
   160  148  160 1   
   161  148  161 1   
   162  162  163 1   
   163  162  171 1   
   164  163  164 1   
   165  163  166 1   
   166  163  172 1   
   167  164  165 2   
   168  164  177 1   
   169  166  167 1   
   170  166  173 1   
   171  166  174 1   
   172  167  168 1   
   173  167  175 1   
   174  167  176 1   
   175  168  169 1   
   176  168  170 1   
   177  177  178 1   
   178  177  182 1   
   179  178  179 1   
   180  178  180 1   
   181  178  181 1   
   182  184  185 1   
   183  184  186 1   
   184  187  188 1   
   185  187  189 1   
   186  190  191 1   
   187  190  192 1   
@<TRIPOS>SUBSTRUCTURE
     1 MOL         1 TEMP              0 ****  ****    0 ROOT
