@<TRIPOS>MOLECULE
MOL
  189   185     1     0     0
SMALL
resp


@<TRIPOS>ATOM
      1 C1          4.7810    3.7560   -3.8760 c3        1 MOL     -0.291793
      2 C2          5.2350    2.6740   -2.8560 c         1 MOL      0.835609
      3 O1          4.6160    2.4820   -1.8090 o         1 MOL     -0.726447
      4 H1          3.6920    3.8160   -3.8800 hc        1 MOL      0.072150
      5 H2          5.1970    4.7230   -3.5900 hc        1 MOL      0.072150
      6 H3          5.1330    3.4880   -4.8720 hc        1 MOL      0.072150
      7 N1          6.3670    2.0450   -3.2070 n         1 MOL     -0.759401
      8 C3          6.9330    0.9040   -2.5490 c3        1 MOL      0.216989
      9 C4          5.9900   -0.1180   -1.9850 c         1 MOL      0.049773
     10 O2          5.7680   -0.2470   -0.7770 o         1 MOL     -0.197575
     11 C5          8.0090    1.2830   -1.4770 c3        1 MOL      0.010190
     12 C6          7.9770    2.6200   -0.7230 c         1 MOL      0.693186
     13 O3          7.1140    2.7150    0.2680 o         1 MOL     -0.713398
     14 O4          8.7700    3.5760   -1.0050 o         1 MOL     -0.713398
     15 H4          6.7430    2.2340   -4.1350 hn        1 MOL      0.369940
     16 H5          7.5650    0.3520   -3.2500 h1        1 MOL      0.045769
     17 H6          8.9940    1.2900   -1.9490 hc        1 MOL     -0.030090
     18 H7          8.0380    0.5340   -0.6900 hc        1 MOL     -0.030090
     19 N2          5.4820   -0.9120   -2.8960 n         1 MOL     -0.141151
     20 C7          4.5840   -2.0000   -2.7550 c3        1 MOL     -0.085931
     21 C8          5.1630   -3.2180   -1.9350 c         1 MOL      0.400499
     22 O5          5.3130   -4.3070   -2.5280 o         1 MOL     -0.541759
     23 C9          3.0630   -1.5290   -2.4880 c3        1 MOL      0.420437
     24 C10         1.9800   -2.6330   -2.6580 c3        1 MOL     -0.151176
     25 C11         2.5750   -0.2500   -2.9930 c3        1 MOL     -0.065692
     26 C12         1.5880   -2.8640   -4.0610 c3        1 MOL     -0.370360
     27 H8          5.7840   -0.7070   -3.8350 hn        1 MOL      0.215479
     28 H9          4.4330   -2.3910   -3.7630 h1        1 MOL      0.040662
     29 H10         3.0210   -1.4410   -1.4010 hc        1 MOL     -0.298083
     30 H11         1.0840   -2.2570   -2.1720 hc        1 MOL      0.117366
     31 H12         2.2240   -3.5830   -2.2000 hc        1 MOL      0.117366
     32 H13         3.2750    0.5150   -2.6410 hc        1 MOL     -0.011427
     33 H14         2.6360   -0.2210   -4.0780 hc        1 MOL     -0.011427
     34 H15         1.5620   -0.0860   -2.6170 hc        1 MOL     -0.011427
     35 H16         1.1590   -1.9910   -4.5590 hc        1 MOL      0.083100
     36 H17         2.4770   -3.1650   -4.6130 hc        1 MOL      0.083100
     37 H18         0.8010   -3.6130   -4.1470 hc        1 MOL      0.083100
     38 N3          5.5340   -2.9700   -0.6640 n         1 MOL     -0.067884
     39 C13         6.2030   -3.9180    0.2880 c3        1 MOL     -0.021487
     40 C14         5.4700   -5.1170    0.8320 c         1 MOL      0.594725
     41 O6          6.1090   -6.1720    0.7390 o         1 MOL     -0.581712
     42 C15         6.9690   -3.2180    1.4820 c3        1 MOL     -0.258422
     43 C16         8.1130   -2.3470    0.8750 c         1 MOL      0.794898
     44 O7          8.9110   -2.8210    0.0110 o         1 MOL     -0.708399
     45 O8          8.3910   -1.2760    1.4220 o         1 MOL     -0.708399
     46 H19         5.3990   -2.0830   -0.2060 hn        1 MOL      0.051800
     47 H20         6.9940   -4.4290   -0.2550 h1        1 MOL      0.048889
     48 H21         7.4680   -4.0140    2.0180 hc        1 MOL      0.074101
     49 H22         6.2320   -2.6820    2.0810 hc        1 MOL      0.074101
     50 N4          4.2980   -5.0220    1.4870 n         1 MOL     -0.605759
     51 C17         3.4820   -3.8240    1.6200 c3        1 MOL      0.301914
     52 C18         2.3450   -4.0460    2.6890 c         1 MOL      0.517410
     53 O9          1.7960   -5.1020    2.9580 o         1 MOL     -0.554749
     54 H23         3.9930   -5.8200    2.0260 hn        1 MOL      0.287260
     55 H24         3.0350   -3.5500    0.6660 h1        1 MOL      0.000372
     56 H25         4.2260   -3.0770    1.9020 h1        1 MOL      0.000372
     57 N5          1.9200   -2.9010    3.2030 n         1 MOL     -0.513121
     58 C19         2.3040   -1.4790    3.0330 c3        1 MOL      0.191231
     59 C20         2.3990   -0.9860    1.5600 c         1 MOL      0.099836
     60 O10         3.4750   -0.6020    1.1350 o         1 MOL     -0.479893
     61 C21         3.6300   -1.2850    3.9090 c3        1 MOL     -0.341644
     62 C22         4.1350    0.1240    3.9600 c         1 MOL      0.783988
     63 O11         5.1460    0.3620    4.6840 o         1 MOL     -0.730743
     64 O12         3.6170    1.0710    3.3110 o         1 MOL     -0.730743
     65 H26         1.0990   -3.1380    3.7480 hn        1 MOL      0.277447
     66 H27         1.5150   -0.9200    3.5340 h1        1 MOL      0.108249
     67 H28         4.3900   -1.9890    3.5810 hc        1 MOL      0.088620
     68 H29         3.3850   -1.6070    4.9190 hc        1 MOL      0.088620
     69 N6          1.3210   -0.8830    0.7970 n         1 MOL     -0.050282
     70 C23        -0.0740   -1.2270    1.1630 c3        1 MOL     -0.410101
     71 C24        -0.5710   -2.6530    0.7510 c         1 MOL      0.642610
     72 O13         0.2180   -3.5690    0.5090 o         1 MOL     -0.514830
     73 H30         1.4160   -0.3510   -0.0530 hn        1 MOL      0.333464
     74 H31        -0.6680   -0.5230    0.5820 h1        1 MOL      0.154104
     75 H32        -0.3040   -1.0340    2.2050 h1        1 MOL      0.154104
     76 N7         -1.8720   -2.7180    0.6880 n         1 MOL     -0.573858
     77 C25        -2.5190   -4.0280    0.2730 c3        1 MOL      0.160017
     78 C26        -3.1960   -3.9880   -1.1760 c         1 MOL      0.313191
     79 O14        -3.4220   -5.0520   -1.7610 o         1 MOL     -0.513587
     80 C27        -3.5970   -4.4790    1.2920 c3        1 MOL      0.080260
     81 C28        -4.9810   -3.8780    1.0840 c3        1 MOL     -0.164515
     82 C29        -5.9460   -4.4000    2.0940 c         1 MOL      0.685275
     83 N8         -7.2350   -4.2490    1.9050 n         1 MOL     -0.819965
     84 O15        -5.5510   -5.0050    3.0950 o         1 MOL     -0.586932
     85 H33        -2.4560   -1.9050    0.8350 hn        1 MOL      0.330501
     86 H34        -1.8190   -4.8640    0.2220 h1        1 MOL      0.104888
     87 H35        -3.2860   -4.3330    2.3200 hc        1 MOL      0.013356
     88 H36        -3.7070   -5.5640    1.2180 hc        1 MOL      0.013356
     89 H37        -5.3990   -4.0900    0.1100 hc        1 MOL      0.028873
     90 H38        -4.8180   -2.8070    1.2450 hc        1 MOL      0.028873
     91 H39        -7.6430   -3.8900    1.0530 hn        1 MOL      0.353963
     92 H40        -7.8100   -4.7280    2.5780 hn        1 MOL      0.353963
     93 N9         -3.4710   -2.8580   -1.7310 n         1 MOL     -0.200385
     94 C30        -4.0270   -2.6740   -3.0660 c3        1 MOL      0.004010
     95 C31        -5.3760   -2.0540   -3.1090 c         1 MOL      0.361270
     96 O16        -6.0740   -2.0880   -4.1560 o         1 MOL     -0.543657
     97 C32        -3.1610   -1.9220   -4.0390 c3        1 MOL      0.203523
     98 C33        -1.9600   -2.6960   -4.5740 c3        1 MOL     -0.170814
     99 C34        -2.6360   -0.6110   -3.3350 c3        1 MOL     -0.170814
    100 H41        -3.2440   -1.9600   -1.3280 hn        1 MOL      0.137933
    101 H42        -4.2520   -3.5930   -3.6130 h1        1 MOL      0.105469
    102 H43        -3.7740   -1.6400   -4.8940 hc        1 MOL      0.008027
    103 H44        -1.2470   -2.9040   -3.7860 hc        1 MOL      0.035979
    104 H45        -2.3860   -3.5650   -5.0750 hc        1 MOL      0.035979
    105 H46        -1.4620   -2.0180   -5.2630 hc        1 MOL      0.035979
    106 H47        -2.0600   -0.0230   -4.0520 hc        1 MOL      0.035979
    107 H48        -3.4210    0.0160   -2.8970 hc        1 MOL      0.035979
    108 H49        -1.9630   -0.8330   -2.5060 hc        1 MOL      0.035979
    109 N10        -5.9180   -1.4370   -2.0520 n         1 MOL     -0.215338
    110 C35        -7.2600   -0.8500   -2.0190 c3        1 MOL      0.022931
    111 C36        -7.1860    0.6420   -1.6130 c         1 MOL      0.607164
    112 O17        -8.0180    1.4270   -2.0450 o         1 MOL     -0.553577
    113 C37        -8.1920   -1.5020   -1.0370 c3        1 MOL     -0.105517
    114 C38        -8.4510   -2.9380   -1.3510 c         1 MOL      0.618274
    115 N11        -8.7700   -3.1860   -2.6180 n         1 MOL     -0.790652
    116 O18        -8.3920   -3.8410   -0.5200 o         1 MOL     -0.523910
    117 H50        -5.3930   -1.4900   -1.1970 hn        1 MOL      0.211554
    118 H51        -7.7490   -0.8620   -2.9980 h1        1 MOL      0.064137
    119 H52        -9.1150   -0.9250   -1.0630 hc        1 MOL      0.018753
    120 H53        -7.7720   -1.4400   -0.0380 hc        1 MOL      0.018753
    121 H54        -8.8770   -2.4530   -3.3020 hn        1 MOL      0.384103
    122 H55        -8.7070   -4.1390   -2.9590 hn        1 MOL      0.384103
    123 N12        -6.2250    1.1660   -0.7660 n         1 MOL     -0.631946
    124 C39        -6.2750    2.5710   -0.2680 c3        1 MOL      0.482220
    125 C40        -4.8550    3.0480    0.0970 c         1 MOL      0.215826
    126 O19        -3.8960    2.2840   -0.0280 o         1 MOL     -0.477097
    127 C41        -7.1880    2.5970    0.9920 c3        1 MOL     -0.532472
    128 C42        -6.9610    1.5410    2.0930 ca        1 MOL     -0.081345
    129 C43        -7.8460    0.4820    2.0500 ca        1 MOL      0.061199
    130 C44        -5.9260    1.6810    3.0660 ca        1 MOL      0.061199
    131 C45        -7.6930   -0.5930    2.9330 ca        1 MOL     -0.400186
    132 C46        -5.8350    0.5820    3.9210 ca        1 MOL     -0.400186
    133 C47        -6.6090   -0.6280    3.7790 ca        1 MOL      0.396687
    134 O20        -6.4010   -1.7480    4.4920 oh        1 MOL     -0.406768
    135 H56        -5.5900    0.5430   -0.2790 hn        1 MOL      0.331678
    136 H57        -6.6180    3.2660   -1.0270 h1        1 MOL      0.005591
    137 H58        -8.2090    2.5580    0.6240 hc        1 MOL      0.156612
    138 H59        -7.2620    3.4970    1.6020 hc        1 MOL      0.156612
    139 H60        -8.7320    0.5300    1.4360 ha        1 MOL      0.085637
    140 H61        -5.2630    2.5300    3.1450 ha        1 MOL      0.085637
    141 H62        -8.4170   -1.3940    2.9600 ha        1 MOL      0.185942
    142 H63        -5.0410    0.5680    4.6540 ha        1 MOL      0.185942
    143 H64        -7.1630   -2.2790    4.2710 ho        1 MOL      0.290773
    144 N13        -4.8340    4.2570    0.5170 n         1 MOL     -0.243820
    145 C48        -3.6550    5.1520    0.9170 c3        1 MOL      0.010452
    146 C49        -2.5370    5.3290   -0.1660 c         1 MOL      0.349370
    147 O21        -2.1700    6.4360   -0.5400 o         1 MOL     -0.519573
    148 C50        -3.0420    4.7050    2.2760 c3        1 MOL     -0.059808
    149 C51        -2.2100    5.8780    2.8510 c3        1 MOL     -0.453142
    150 C52        -1.6610    5.6180    4.2700 c         1 MOL      0.791696
    151 O22        -2.4410    5.5430    5.2370 o         1 MOL     -0.739443
    152 O23        -0.4230    5.6340    4.3680 o         1 MOL     -0.739443
    153 H65        -5.6980    4.7820    0.6240 hn        1 MOL      0.207659
    154 H66        -4.0650    6.1360    1.1490 h1        1 MOL      0.078422
    155 H67        -2.3640    3.8670    2.1150 hc        1 MOL      0.092608
    156 H68        -3.8150    4.3960    2.9710 hc        1 MOL      0.092608
    157 H69        -2.9290    6.6940    2.9490 hc        1 MOL      0.115813
    158 H70        -1.3930    6.2410    2.2290 hc        1 MOL      0.115813
    159 N14        -1.9820    4.2750   -0.7190 n         1 MOL     -0.264050
    160 C53        -0.8360    4.3480   -1.6360 c3        1 MOL     -0.283917
    161 C54        -1.0270    5.0220   -3.0070 c         1 MOL      0.545824
    162 O24        -0.0710    5.2690   -3.7420 o         1 MOL     -0.537189
    163 C55        -0.2540    2.8980   -1.8480 c3        1 MOL     -0.050965
    164 C56        -0.0210    2.1650   -0.5470 c3        1 MOL      0.523272
    165 C57         1.1950    2.6080    0.2400 c         1 MOL      0.469847
    166 O25         2.2770    2.0800   -0.0030 o         1 MOL     -0.585352
    167 O26         1.1890    3.5410    1.1170 o         1 MOL     -0.585352
    168 H71        -2.2660    3.4120   -0.2870 hn        1 MOL      0.281750
    169 H72        -0.0180    4.9630   -1.2570 h1        1 MOL      0.218283
    170 H73         0.6910    2.8320   -2.3910 hc        1 MOL      0.012927
    171 H74        -0.9410    2.2810   -2.4290 hc        1 MOL      0.012927
    172 H75         0.1270    1.1040   -0.7670 hc        1 MOL     -0.208803
    173 H76        -0.9340    2.1590    0.0490 hc        1 MOL     -0.208803
    174 N15        -2.3020    5.3290   -3.3210 n         1 MOL     -0.199150
    175 C58        -2.7740    5.8800   -4.5810 c3        1 MOL     -0.260728
    176 H77        -3.8550    6.0090   -4.5380 h1        1 MOL      0.098049
    177 H78        -2.3000    6.8460   -4.7560 h1        1 MOL      0.098049
    178 H79        -2.5220    5.1990   -5.3930 h1        1 MOL      0.098049
    179 H80        -2.9680    5.2480   -2.5710 hn        1 MOL      0.222055
    180 Ca1         4.6590    1.8080    0.8300 Ca        1 MOL      1.709279
    181 O27         6.5410    0.3890    2.2080 oh        1 MOL     -0.802691
    182 O28         3.7200    4.2270    1.2060 oh        1 MOL     -0.802691
    183 H81         7.1410   -0.2100    1.7690 ho        1 MOL      0.382348
    184 H82         3.7860    5.1780    1.2300 ho        1 MOL      0.382348
    185 H83         6.4620    0.0460    3.0890 ho        1 MOL      0.382348
    186 H84         2.7850    4.0520    1.1250 ho        1 MOL      0.382348
    187 O29         5.8720    3.4840    2.7970 oh        1 MOL     -0.802691
    188 H85         5.1600    3.4260    3.4300 ho        1 MOL      0.382348
    189 H86         6.6210    3.0610    3.2270 ho        1 MOL      0.382348
@<TRIPOS>BOND
     1    1    2 1   
     2    1    4 1   
     3    1    5 1   
     4    1    6 1   
     5    2    3 2   
     6    2    7 1   
     7    7    8 1   
     8    7   15 1   
     9    8    9 1   
    10    8   11 1   
    11    8   16 1   
    12    9   10 2   
    13    9   19 1   
    14   11   12 1   
    15   11   17 1   
    16   11   18 1   
    17   12   13 1   
    18   12   14 1   
    19   19   20 1   
    20   19   27 1   
    21   20   21 1   
    22   20   23 1   
    23   20   28 1   
    24   21   22 2   
    25   21   38 1   
    26   23   24 1   
    27   23   25 1   
    28   23   29 1   
    29   24   26 1   
    30   24   30 1   
    31   24   31 1   
    32   25   32 1   
    33   25   33 1   
    34   25   34 1   
    35   26   35 1   
    36   26   36 1   
    37   26   37 1   
    38   38   39 1   
    39   38   46 1   
    40   39   40 1   
    41   39   42 1   
    42   39   47 1   
    43   40   41 2   
    44   40   50 1   
    45   42   43 1   
    46   42   48 1   
    47   42   49 1   
    48   43   44 1   
    49   43   45 1   
    50   50   51 1   
    51   50   54 1   
    52   51   52 1   
    53   51   55 1   
    54   51   56 1   
    55   52   53 2   
    56   52   57 1   
    57   57   58 1   
    58   57   65 1   
    59   58   59 1   
    60   58   61 1   
    61   58   66 1   
    62   59   60 2   
    63   59   69 1   
    64   61   62 1   
    65   61   67 1   
    66   61   68 1   
    67   62   63 1   
    68   62   64 1   
    69   69   70 1   
    70   69   73 1   
    71   70   71 1   
    72   70   74 1   
    73   70   75 1   
    74   71   72 2   
    75   71   76 1   
    76   76   77 1   
    77   76   85 1   
    78   77   78 1   
    79   77   80 1   
    80   77   86 1   
    81   78   79 2   
    82   78   93 1   
    83   80   81 1   
    84   80   87 1   
    85   80   88 1   
    86   81   82 1   
    87   81   89 1   
    88   81   90 1   
    89   82   83 1   
    90   82   84 2   
    91   83   91 1   
    92   83   92 1   
    93   93   94 1   
    94   93  100 1   
    95   94   95 1   
    96   94   97 1   
    97   94  101 1   
    98   95   96 2   
    99   95  109 1   
   100   97   98 1   
   101   97   99 1   
   102   97  102 1   
   103   98  103 1   
   104   98  104 1   
   105   98  105 1   
   106   99  106 1   
   107   99  107 1   
   108   99  108 1   
   109  109  110 1   
   110  109  117 1   
   111  110  111 1   
   112  110  113 1   
   113  110  118 1   
   114  111  112 2   
   115  111  123 1   
   116  113  114 1   
   117  113  119 1   
   118  113  120 1   
   119  114  115 1   
   120  114  116 2   
   121  115  121 1   
   122  115  122 1   
   123  123  124 1   
   124  123  135 1   
   125  124  125 1   
   126  124  127 1   
   127  124  136 1   
   128  125  126 2   
   129  125  144 1   
   130  127  128 1   
   131  127  137 1   
   132  127  138 1   
   133  128  129 ar  
   134  128  130 ar  
   135  129  131 ar  
   136  129  139 1   
   137  130  132 ar  
   138  130  140 1   
   139  131  133 ar  
   140  131  141 1   
   141  132  133 ar  
   142  132  142 1   
   143  133  134 1   
   144  134  143 1   
   145  144  145 1   
   146  144  153 1   
   147  145  146 1   
   148  145  148 1   
   149  145  154 1   
   150  146  147 2   
   151  146  159 1   
   152  148  149 1   
   153  148  155 1   
   154  148  156 1   
   155  149  150 1   
   156  149  157 1   
   157  149  158 1   
   158  150  151 1   
   159  150  152 1   
   160  159  160 1   
   161  159  168 1   
   162  160  161 1   
   163  160  163 1   
   164  160  169 1   
   165  161  162 2   
   166  161  174 1   
   167  163  164 1   
   168  163  170 1   
   169  163  171 1   
   170  164  165 1   
   171  164  172 1   
   172  164  173 1   
   173  165  166 1   
   174  165  167 1   
   175  174  175 1   
   176  174  179 1   
   177  175  176 1   
   178  175  177 1   
   179  175  178 1   
   180  181  183 1   
   181  181  185 1   
   182  182  184 1   
   183  182  186 1   
   184  187  188 1   
   185  187  189 1   
@<TRIPOS>SUBSTRUCTURE
     1 MOL         1 TEMP              0 ****  ****    0 ROOT
