@<TRIPOS>MOLECULE
MOL
  192   187     1     0     0
SMALL
resp


@<TRIPOS>ATOM
      1 C1          4.4110    3.9740   -4.2520 c3        1 MOL     -0.567808
      2 C2          5.1850    3.2540   -3.1020 c         1 MOL      0.766196
      3 O1          4.6800    2.9950   -2.0430 o         1 MOL     -0.603034
      4 H1          4.1190    4.9710   -3.9250 hc        1 MOL      0.148715
      5 H2          5.0540    4.0540   -5.1290 hc        1 MOL      0.148715
      6 H3          3.5190    3.4000   -4.5060 hc        1 MOL      0.148715
      7 N1          6.4140    2.8060   -3.3630 n         1 MOL     -0.568760
      8 C3          7.2630    1.8720   -2.6250 c3        1 MOL      0.135767
      9 C4          6.4750    0.6650   -2.1690 c         1 MOL      0.472792
     10 O2          6.1250    0.5660   -0.9940 o         1 MOL     -0.555912
     11 C5          8.2600    2.4920   -1.5510 c3        1 MOL     -0.170613
     12 C6          7.6450    3.5650   -0.6480 c         1 MOL      0.731557
     13 O3          6.6910    3.2580    0.0940 o         1 MOL     -0.712429
     14 O4          8.1990    4.6640   -0.5880 o         1 MOL     -0.712429
     15 H4          6.7960    2.9720   -4.2890 hn        1 MOL      0.303545
     16 H5          7.9110    1.4610   -3.3970 h1        1 MOL      0.017913
     17 H6          9.0760    2.9390   -2.1120 hc        1 MOL      0.035029
     18 H7          8.6790    1.6980   -0.9270 hc        1 MOL      0.035029
     19 N2          6.1100   -0.1830   -3.0890 n         1 MOL     -0.500996
     20 C7          5.1880   -1.3340   -2.9740 c3        1 MOL      0.193324
     21 C8          5.7690   -2.4470   -2.0260 c         1 MOL      0.383744
     22 O5          6.0230   -3.5140   -2.4960 o         1 MOL     -0.558928
     23 C9          3.7420   -0.9600   -2.6400 c3        1 MOL      0.111386
     24 C10         2.8310   -2.2350   -2.7610 c3        1 MOL      0.131082
     25 C11         3.0730    0.1340   -3.4860 c3        1 MOL     -0.242732
     26 C12         2.6160   -2.7320   -4.2400 c3        1 MOL     -0.474260
     27 H8          6.4190    0.1940   -3.9720 hn        1 MOL      0.266624
     28 H9          5.1360   -1.7750   -3.9670 h1        1 MOL      0.027389
     29 H10         3.6810   -0.6270   -1.6090 hc        1 MOL     -0.079254
     30 H11         1.8930   -2.2320   -2.2170 hc        1 MOL      0.035464
     31 H12         3.2360   -3.0830   -2.2200 hc        1 MOL      0.035464
     32 H13         2.0070    0.1900   -3.2460 hc        1 MOL      0.047307
     33 H14         3.5710    1.0780   -3.2780 hc        1 MOL      0.047307
     34 H15         3.1310    0.0040   -4.5620 hc        1 MOL      0.047307
     35 H16         3.5880   -2.7610   -4.7310 hc        1 MOL      0.103586
     36 H17         2.2700   -3.7650   -4.1630 hc        1 MOL      0.103586
     37 H18         1.9630   -1.9970   -4.7110 hc        1 MOL      0.103586
     38 N3          5.9850   -2.2360   -0.6790 n         1 MOL     -0.012127
     39 C13         6.7190   -3.2320    0.0710 c3        1 MOL     -0.079545
     40 C14         6.0380   -4.5430    0.5070 c         1 MOL      0.658929
     41 O6          6.5670   -5.6550    0.3950 o         1 MOL     -0.595626
     42 C15         7.2180   -2.5040    1.3350 c3        1 MOL     -0.342547
     43 C16         8.1850   -3.3390    2.1400 c         1 MOL      0.685361
     44 O7          7.8530   -3.9060    3.2120 o         1 MOL     -0.686655
     45 O8          9.3520   -3.5220    1.6770 o         1 MOL     -0.686655
     46 H19         5.8670   -1.2710   -0.4280 hn        1 MOL      0.163275
     47 H20         7.5730   -3.6110   -0.4860 h1        1 MOL      0.060242
     48 H21         6.3540   -2.2760    1.9610 hc        1 MOL      0.101283
     49 H22         7.7200   -1.5560    1.1050 hc        1 MOL      0.101283
     50 N4          4.8400   -4.6710    1.0380 n         1 MOL     -0.513537
     51 C17         3.8520   -3.6350    1.3250 c3        1 MOL      0.160020
     52 C18         2.7540   -3.9090    2.3280 c         1 MOL      0.672107
     53 O9          2.4350   -5.0960    2.6070 o         1 MOL     -0.635944
     54 H23         4.6230   -5.6050    1.3660 hn        1 MOL      0.299754
     55 H24         3.4220   -3.2980    0.3800 h1        1 MOL     -0.029699
     56 H25         4.3620   -2.7850    1.7790 h1        1 MOL     -0.029699
     57 N5          2.1870   -2.8750    2.9540 n         1 MOL     -0.289912
     58 C19         2.4480   -1.4140    2.8910 c3        1 MOL     -0.032289
     59 C20         2.5210   -0.8430    1.4730 c         1 MOL      0.247129
     60 O10         3.5700   -0.3360    1.0960 o         1 MOL     -0.590881
     61 C21         3.6290   -1.0380    3.8240 c3        1 MOL     -0.186570
     62 C22         3.5870   -1.7460    5.2090 c         1 MOL      0.611382
     63 O11         2.4530   -1.9170    5.7400 o         1 MOL     -0.668385
     64 O12         4.6560   -2.1670    5.6410 o         1 MOL     -0.668385
     65 H26         1.5960   -3.0940    3.7420 hn        1 MOL      0.212129
     66 H27         1.6010   -0.9810    3.4150 h1        1 MOL      0.065258
     67 H28         3.4870    0.0120    4.0930 hc        1 MOL      0.078934
     68 H29         4.5940   -1.0840    3.3190 hc        1 MOL      0.078934
     69 N6          1.5240   -0.8590    0.6280 n         1 MOL      0.023230
     70 C23         0.1340   -1.2580    0.8370 c3        1 MOL      0.002962
     71 C24        -0.1960   -2.6430    0.3440 c         1 MOL      0.258212
     72 O13         0.6730   -3.3850   -0.0740 o         1 MOL     -0.480880
     73 H30         1.7270   -0.2320   -0.1430 hn        1 MOL      0.113977
     74 H31        -0.6110   -0.5150    0.5440 h1        1 MOL      0.058111
     75 H32        -0.0190   -1.3750    1.9110 h1        1 MOL      0.058111
     76 N7         -1.4780   -3.0410    0.3840 n         1 MOL     -0.233338
     77 C25        -1.9120   -4.3810   -0.1080 c3        1 MOL      0.095508
     78 C26        -2.8500   -4.2210   -1.3030 c         1 MOL      0.517766
     79 O14        -3.1160   -5.2380   -1.8380 o         1 MOL     -0.545998
     80 C27        -2.4870   -5.3110    1.0270 c3        1 MOL     -0.057042
     81 C28        -3.6320   -4.7270    1.8070 c3        1 MOL      0.066170
     82 C29        -4.8570   -4.3130    1.0820 c         1 MOL      0.457938
     83 N8         -5.8280   -5.1840    0.7870 n         1 MOL     -0.646538
     84 O15        -4.9460   -3.0800    0.6610 o         1 MOL     -0.577867
     85 H33        -2.1950   -2.3790    0.6370 hn        1 MOL      0.180644
     86 H34        -1.1110   -4.9440   -0.5930 h1        1 MOL      0.088541
     87 H35        -1.6880   -5.4590    1.7450 hc        1 MOL      0.017435
     88 H36        -2.7370   -6.2330    0.5070 hc        1 MOL      0.017435
     89 H37        -3.2280   -3.8660    2.3410 hc        1 MOL      0.007259
     90 H38        -3.9200   -5.4350    2.5830 hc        1 MOL      0.007259
     91 H39        -5.7070   -6.1310    1.0980 hn        1 MOL      0.338687
     92 H40        -6.5140   -4.8760    0.1070 hn        1 MOL      0.338687
     93 N9         -3.3250   -3.0090   -1.6510 n         1 MOL     -0.081966
     94 C30        -3.7900   -2.7350   -3.0140 c3        1 MOL     -0.483148
     95 C31        -5.0960   -1.9220   -3.1370 c         1 MOL      0.797082
     96 O16        -5.5830   -1.6840   -4.2060 o         1 MOL     -0.591102
     97 C32        -2.6520   -2.1590   -3.9120 c3        1 MOL      0.288159
     98 C33        -1.4340   -3.1360   -4.0850 c3        1 MOL     -0.289981
     99 C34        -2.0030   -0.9350   -3.3150 c3        1 MOL     -0.289981
    100 H41        -3.2260   -2.1910   -1.0680 hn        1 MOL      0.222780
    101 H42        -4.0540   -3.6930   -3.4610 h1        1 MOL      0.151686
    102 H43        -3.1560   -1.8330   -4.8150 hc        1 MOL      0.004439
    103 H44        -1.0810   -2.8220   -5.0660 hc        1 MOL      0.071076
    104 H45        -0.8100   -3.0780   -3.1960 hc        1 MOL      0.071076
    105 H46        -1.6760   -4.2000   -4.1440 hc        1 MOL      0.071076
    106 H47        -1.2180   -0.5740   -3.9780 hc        1 MOL      0.071076
    107 H48        -2.6220   -0.0410   -3.2710 hc        1 MOL      0.071076
    108 H49        -1.5690   -1.1240   -2.3320 hc        1 MOL      0.071076
    109 N10        -5.6390   -1.5090   -1.9850 n         1 MOL     -0.634056
    110 C35        -6.9500   -0.9060   -1.8520 c3        1 MOL      0.135550
    111 C36        -7.0610    0.5170   -1.1480 c         1 MOL      0.496844
    112 O17        -8.0610    1.2070   -1.2650 o         1 MOL     -0.557439
    113 C37        -7.7250   -1.9790   -1.0370 c3        1 MOL     -0.351343
    114 C38        -8.0180   -3.3010   -1.7840 c         1 MOL      0.637653
    115 N11        -8.5790   -3.2020   -3.0080 n         1 MOL     -0.785459
    116 O18        -7.7620   -4.4010   -1.2280 o         1 MOL     -0.534005
    117 H50        -5.0670   -1.6210   -1.1590 hn        1 MOL      0.299228
    118 H51        -7.4320   -0.8720   -2.8310 h1        1 MOL      0.052086
    119 H52        -8.6340   -1.4490   -0.7410 hc        1 MOL      0.145624
    120 H53        -7.2530   -2.2690   -0.0960 hc        1 MOL      0.145624
    121 H54        -8.6170   -2.2870   -3.4440 hn        1 MOL      0.374240
    122 H55        -8.5250   -3.9860   -3.6380 hn        1 MOL      0.374240
    123 N12        -6.1200    0.8710   -0.3030 n         1 MOL     -0.394805
    124 C39        -6.1290    2.0700    0.5430 c3        1 MOL      0.287040
    125 C40        -4.7840    2.7790    0.6100 c         1 MOL      0.293764
    126 O19        -3.7860    2.0870    0.4460 o         1 MOL     -0.476533
    127 C41        -6.5310    1.6020    1.9460 c3        1 MOL     -0.113429
    128 C42        -7.8440    0.7700    1.9690 ca        1 MOL     -0.119619
    129 C43        -9.0740    1.4160    1.8140 ca        1 MOL     -0.004453
    130 C44        -7.9150   -0.6540    2.1830 ca        1 MOL     -0.004453
    131 C45       -10.3240    0.7820    1.9490 ca        1 MOL     -0.377843
    132 C46        -9.1980   -1.2550    2.1980 ca        1 MOL     -0.377843
    133 C47       -10.4180   -0.5680    2.1370 ca        1 MOL      0.459385
    134 O20       -11.5890   -1.1240    2.4550 oh        1 MOL     -0.527359
    135 H56        -5.3850    0.1980   -0.1420 hn        1 MOL      0.232152
    136 H57        -6.8880    2.7000    0.0790 h1        1 MOL      0.030526
    137 H58        -6.6860    2.5440    2.4830 hc        1 MOL      0.075250
    138 H59        -5.7260    1.1370    2.5030 hc        1 MOL      0.075250
    139 H60        -9.0260    2.4680    1.5620 ha        1 MOL      0.090512
    140 H61        -7.0340   -1.2520    2.3480 ha        1 MOL      0.090512
    141 H62       -11.2150    1.3850    1.8350 ha        1 MOL      0.134176
    142 H63        -9.2870   -2.2710    2.5520 ha        1 MOL      0.134176
    143 H64       -12.3190   -0.4990    2.4440 ho        1 MOL      0.371956
    144 N13        -4.7450    4.0590    0.8250 n         1 MOL     -0.472980
    145 C48        -3.5890    4.9370    1.2590 c3        1 MOL      0.083539
    146 C49        -2.3920    5.0670    0.3460 c         1 MOL      0.296453
    147 O21        -1.6760    6.0470    0.3940 o         1 MOL     -0.497158
    148 C50        -3.2550    4.6590    2.7240 c3        1 MOL      0.059070
    149 C51        -2.5850    5.7340    3.4400 c3        1 MOL     -0.455392
    150 C52        -2.2660    5.4000    4.9230 c         1 MOL      0.745723
    151 O22        -3.1020    5.7520    5.8170 o         1 MOL     -0.739287
    152 O23        -1.1560    4.9100    5.2000 o         1 MOL     -0.739287
    153 H65        -5.6340    4.5430    0.7290 hn        1 MOL      0.292340
    154 H66        -4.0530    5.9230    1.2660 h1        1 MOL      0.058436
    155 H67        -2.5990    3.7940    2.7090 hc        1 MOL      0.052270
    156 H68        -4.1250    4.4340    3.3370 hc        1 MOL      0.052270
    157 H69        -3.1040    6.6920    3.3750 hc        1 MOL      0.111482
    158 H70        -1.5930    5.8130    2.9990 hc        1 MOL      0.111482
    159 N14        -2.1640    4.1190   -0.5920 n         1 MOL     -0.152358
    160 C53        -1.1160    4.1790   -1.5990 c3        1 MOL     -0.138199
    161 C54        -1.4440    5.1420   -2.8260 c         1 MOL      0.418965
    162 O24        -0.5620    5.6800   -3.4700 o         1 MOL     -0.511422
    163 C55        -0.7630    2.7560   -2.1010 c3        1 MOL      0.034045
    164 C56        -0.2150    1.7110   -1.1410 c3        1 MOL      0.253998
    165 C57         0.8620    2.2460   -0.2130 c         1 MOL      0.422923
    166 O25         0.5280    2.7090    0.9200 o         1 MOL     -0.574876
    167 O26         2.0540    1.9370   -0.4770 o         1 MOL     -0.574876
    168 H71        -2.6600    3.2740   -0.3420 hn        1 MOL      0.221132
    169 H72        -0.1560    4.5490   -1.2290 h1        1 MOL      0.185122
    170 H73         0.0920    2.9540   -2.7540 hc        1 MOL     -0.029654
    171 H74        -1.5610    2.2640   -2.6420 hc        1 MOL     -0.029654
    172 H75         0.0680    0.8000   -1.6590 hc        1 MOL     -0.077677
    173 H76        -1.1350    1.4650   -0.5980 hc        1 MOL     -0.077677
    174 N15        -2.7130    5.3860   -3.2160 n         1 MOL     -0.186318
    175 C58        -3.1460    6.0360   -4.4470 c3        1 MOL     -0.092191
    176 H77        -3.5710    7.0120   -4.2120 h1        1 MOL      0.055342
    177 H78        -2.2920    6.1620   -5.1120 h1        1 MOL      0.055342
    178 H79        -3.9010    5.4210   -4.9370 h1        1 MOL      0.055342
    179 H80        -3.4750    4.9910   -2.6980 hn        1 MOL      0.172961
    180 Ca1         4.4400    2.1020    0.5870 Ca        1 MOL      1.802564
    181 O27         6.1780    0.9360    2.5770 oh        1 MOL     -0.843222
    182 H81         7.0390    1.3440    2.6710 ho        1 MOL      0.407714
    183 H82         6.1220    0.3300    3.3200 ho        1 MOL      0.407714
    184 O28         3.5600    4.6510    0.7300 oh        1 MOL     -0.843222
    185 H83         3.3730    5.3500    0.1060 ho        1 MOL      0.407714
    186 H84         3.0420    4.8610    1.5010 ho        1 MOL      0.407714
    187 O29         2.2830    2.2770    2.6240 oh        1 MOL     -0.843222
    188 H85         1.5820    2.4900    2.0080 ho        1 MOL      0.407714
    189 H86         1.8560    2.2270    3.4760 ho        1 MOL      0.407714
    190 O30         5.2620    3.7140    2.7470 oh        1 MOL     -0.843222
    191 H87         5.1900    3.8430    3.6930 ho        1 MOL      0.407714
    192 H88         5.7470    4.4720    2.4400 ho        1 MOL      0.407714
@<TRIPOS>BOND
     1    1    2 1   
     2    1    4 1   
     3    1    5 1   
     4    1    6 1   
     5    2    3 2   
     6    2    7 1   
     7    7    8 1   
     8    7   15 1   
     9    8    9 1   
    10    8   11 1   
    11    8   16 1   
    12    9   10 2   
    13    9   19 1   
    14   11   12 1   
    15   11   17 1   
    16   11   18 1   
    17   12   13 1   
    18   12   14 1   
    19   19   20 1   
    20   19   27 1   
    21   20   21 1   
    22   20   23 1   
    23   20   28 1   
    24   21   22 2   
    25   21   38 1   
    26   23   24 1   
    27   23   25 1   
    28   23   29 1   
    29   24   26 1   
    30   24   30 1   
    31   24   31 1   
    32   25   32 1   
    33   25   33 1   
    34   25   34 1   
    35   26   35 1   
    36   26   36 1   
    37   26   37 1   
    38   38   39 1   
    39   38   46 1   
    40   39   40 1   
    41   39   42 1   
    42   39   47 1   
    43   40   41 2   
    44   40   50 1   
    45   42   43 1   
    46   42   48 1   
    47   42   49 1   
    48   43   44 1   
    49   43   45 1   
    50   50   51 1   
    51   50   54 1   
    52   51   52 1   
    53   51   55 1   
    54   51   56 1   
    55   52   53 2   
    56   52   57 1   
    57   57   58 1   
    58   57   65 1   
    59   58   59 1   
    60   58   61 1   
    61   58   66 1   
    62   59   60 2   
    63   59   69 1   
    64   61   62 1   
    65   61   67 1   
    66   61   68 1   
    67   62   63 1   
    68   62   64 1   
    69   69   70 1   
    70   69   73 1   
    71   70   71 1   
    72   70   74 1   
    73   70   75 1   
    74   71   72 2   
    75   71   76 1   
    76   76   77 1   
    77   76   85 1   
    78   77   78 1   
    79   77   80 1   
    80   77   86 1   
    81   78   79 2   
    82   78   93 1   
    83   80   81 1   
    84   80   87 1   
    85   80   88 1   
    86   81   82 1   
    87   81   89 1   
    88   81   90 1   
    89   82   83 1   
    90   82   84 2   
    91   83   91 1   
    92   83   92 1   
    93   93   94 1   
    94   93  100 1   
    95   94   95 1   
    96   94   97 1   
    97   94  101 1   
    98   95   96 2   
    99   95  109 1   
   100   97   98 1   
   101   97   99 1   
   102   97  102 1   
   103   98  103 1   
   104   98  104 1   
   105   98  105 1   
   106   99  106 1   
   107   99  107 1   
   108   99  108 1   
   109  109  110 1   
   110  109  117 1   
   111  110  111 1   
   112  110  113 1   
   113  110  118 1   
   114  111  112 2   
   115  111  123 1   
   116  113  114 1   
   117  113  119 1   
   118  113  120 1   
   119  114  115 1   
   120  114  116 2   
   121  115  121 1   
   122  115  122 1   
   123  123  124 1   
   124  123  135 1   
   125  124  125 1   
   126  124  127 1   
   127  124  136 1   
   128  125  126 2   
   129  125  144 1   
   130  127  128 1   
   131  127  137 1   
   132  127  138 1   
   133  128  129 ar  
   134  128  130 ar  
   135  129  131 ar  
   136  129  139 1   
   137  130  132 ar  
   138  130  140 1   
   139  131  133 ar  
   140  131  141 1   
   141  132  133 ar  
   142  132  142 1   
   143  133  134 1   
   144  134  143 1   
   145  144  145 1   
   146  144  153 1   
   147  145  146 1   
   148  145  148 1   
   149  145  154 1   
   150  146  147 2   
   151  146  159 1   
   152  148  149 1   
   153  148  155 1   
   154  148  156 1   
   155  149  150 1   
   156  149  157 1   
   157  149  158 1   
   158  150  151 1   
   159  150  152 1   
   160  159  160 1   
   161  159  168 1   
   162  160  161 1   
   163  160  163 1   
   164  160  169 1   
   165  161  162 2   
   166  161  174 1   
   167  163  164 1   
   168  163  170 1   
   169  163  171 1   
   170  164  165 1   
   171  164  172 1   
   172  164  173 1   
   173  165  166 1   
   174  165  167 1   
   175  174  175 1   
   176  174  179 1   
   177  175  176 1   
   178  175  177 1   
   179  175  178 1   
   180  181  182 1   
   181  181  183 1   
   182  184  185 1   
   183  184  186 1   
   184  187  188 1   
   185  187  189 1   
   186  190  191 1   
   187  190  192 1   
@<TRIPOS>SUBSTRUCTURE
     1 MOL         1 TEMP              0 ****  ****    0 ROOT
