@<TRIPOS>MOLECULE
MOL
  181   177     1     0     0
SMALL
resp


@<TRIPOS>ATOM
      1 C1          4.5850   -1.8870    3.3640 c3        1 MOL     -0.543905
      2 C2          5.8600   -1.2080    2.8030 c         1 MOL      0.717779
      3 O1          5.7630   -0.0840    2.2940 o         1 MOL     -0.592881
      4 H1          3.9360   -2.1800    2.5390 hc        1 MOL      0.149479
      5 H2          4.8660   -2.7710    3.9370 hc        1 MOL      0.149479
      6 H3          4.0550   -1.1880    4.0110 hc        1 MOL      0.149479
      7 N1          7.0800   -1.6650    3.0190 n         1 MOL     -0.534363
      8 C3          8.2910   -0.8500    2.9740 c3        1 MOL      0.227965
      9 C4          8.7600   -0.7540    1.4470 c         1 MOL      0.396172
     10 O2          9.1690   -1.7780    0.8440 o         1 MOL     -0.487192
     11 C5          9.3040   -1.6250    3.8710 c3        1 MOL     -0.236680
     12 C6         10.5910   -0.9070    3.9260 c         1 MOL      0.768663
     13 O3         10.5480    0.3460    3.9740 o         1 MOL     -0.750383
     14 O4         11.6870   -1.5550    4.0770 o         1 MOL     -0.750383
     15 H4          7.1560   -2.5600    3.4900 hn        1 MOL      0.285554
     16 H5          8.1040    0.1500    3.3710 h1        1 MOL      0.015210
     17 H6          9.3370   -2.6110    3.4160 hc        1 MOL      0.027037
     18 H7          8.8920   -1.7240    4.8690 hc        1 MOL      0.027037
     19 N2          8.7240    0.5060    0.9630 n         1 MOL     -0.370256
     20 C7          8.9840    0.6750   -0.5080 c3        1 MOL      0.095579
     21 C8          7.8210    0.1490   -1.3530 c         1 MOL      0.523324
     22 O5          8.0830   -0.2180   -2.4680 o         1 MOL     -0.553603
     23 C9          9.3190    2.1430   -0.7260 c3        1 MOL     -0.202527
     24 H8          8.6120    1.3480    1.5070 hn        1 MOL      0.282600
     25 H9          9.8940    0.1220   -0.7600 h1        1 MOL      0.082561
     26 H10         9.6900    2.2810   -1.7360 hc        1 MOL      0.049617
     27 H11         8.3940    2.7180   -0.5910 hc        1 MOL      0.049617
     28 H12        10.0210    2.5260    0.0130 hc        1 MOL      0.049617
     29 N3          6.6240    0.0010   -0.7010 n         1 MOL     -0.342823
     30 C10         5.2810   -0.4970   -1.0900 c3        1 MOL      0.038073
     31 C11         4.7900    0.2050   -2.3740 c         1 MOL      0.445540
     32 O6          3.9770   -0.3480   -3.1340 o         1 MOL     -0.484279
     33 C12         5.3600   -2.0230   -1.1420 c3        1 MOL     -0.009798
     34 C13         3.9310   -2.6060   -1.1500 c         1 MOL      0.501605
     35 O7          3.8120   -3.7850   -1.5900 o         1 MOL     -0.643856
     36 O8          2.9330   -1.9430   -0.6650 o         1 MOL     -0.643856
     37 H13         6.6030    0.3420    0.2480 hn        1 MOL      0.160871
     38 H14         4.6100   -0.2450   -0.2730 h1        1 MOL      0.077168
     39 H15         5.8780   -2.4200   -0.2680 hc        1 MOL      0.029888
     40 H16         5.9550   -2.3730   -1.9770 hc        1 MOL      0.029888
     41 N4          5.2800    1.4210   -2.8390 n         1 MOL     -0.177469
     42 C14         4.8540    2.0900   -4.0550 c3        1 MOL     -0.398646
     43 C15         3.4820    2.7140   -4.2750 c         1 MOL      0.552173
     44 O9          3.1340    2.9560   -5.4390 o         1 MOL     -0.563560
     45 H17         6.0360    1.8710   -2.3370 hn        1 MOL      0.194169
     46 H18         5.0360    1.3620   -4.8440 h1        1 MOL      0.161852
     47 H19         5.5810    2.9010   -4.1300 h1        1 MOL      0.161852
     48 N5          2.7730    3.0670   -3.2230 n         1 MOL     -0.290555
     49 C16         1.4020    3.6250   -3.2030 c3        1 MOL      0.012853
     50 C17         1.2640    4.6700   -2.0990 c         1 MOL      0.388490
     51 O10         1.8520    4.4130   -1.0270 o         1 MOL     -0.469550
     52 C18         0.4350    2.5030   -2.8680 c3        1 MOL     -0.010960
     53 C19        -1.0350    2.9100   -3.1170 c         1 MOL      0.596939
     54 N6         -1.8950    2.7220   -2.1090 n         1 MOL     -0.857686
     55 O11        -1.4000    3.3610   -4.1870 o         1 MOL     -0.568264
     56 H20         3.2560    2.9630   -2.3340 hn        1 MOL      0.192945
     57 H21         1.0620    3.9680   -4.1850 h1        1 MOL      0.051547
     58 H22         0.6560    2.1370   -1.8600 hc        1 MOL      0.070832
     59 H23         0.5710    1.6460   -3.5310 hc        1 MOL      0.070832
     60 H24        -1.5120    2.4510   -1.2190 hn        1 MOL      0.417704
     61 H25        -2.8710    2.8660   -2.3020 hn        1 MOL      0.417704
     62 N7          0.4920    5.7130   -2.3290 n         1 MOL     -0.374345
     63 C20         0.0680    6.7020   -1.3490 c3        1 MOL      0.076875
     64 C21        -1.3440    6.4670   -0.8760 c         1 MOL      0.494092
     65 O12        -2.2110    6.0670   -1.6640 o         1 MOL     -0.483590
     66 H26         0.1450    5.7940   -3.2740 hn        1 MOL      0.289447
     67 H27         0.1490    7.7400   -1.6560 h1        1 MOL      0.034805
     68 H28         0.7000    6.5950   -0.4710 h1        1 MOL      0.034805
     69 N8         -1.6430    6.8050    0.3950 n         1 MOL     -0.398348
     70 C22        -3.0700    6.7270    0.9450 c3        1 MOL     -0.264897
     71 C23        -3.3180    5.4090    1.6270 c         1 MOL      0.526121
     72 O13        -4.4630    5.0230    1.6670 o         1 MOL     -0.551863
     73 C24        -3.4560    7.8520    1.8440 c3        1 MOL      0.405579
     74 C25        -2.9280    7.9010    3.2160 c3        1 MOL     -0.148653
     75 O14        -3.2110    9.0630    1.3170 oh        1 MOL     -0.603388
     76 H29        -0.9030    7.2470    0.9110 hn        1 MOL      0.268293
     77 H30        -3.7980    6.7950    0.1400 h1        1 MOL      0.183638
     78 H31        -4.5490    7.8850    1.9220 h1        1 MOL      0.048569
     79 H32        -2.2910    9.1460    1.0490 ho        1 MOL      0.353100
     80 H33        -3.1960    8.8340    3.7000 hc        1 MOL      0.029337
     81 H34        -3.3260    7.1020    3.8510 hc        1 MOL      0.029337
     82 H35        -1.8430    7.8740    3.2830 hc        1 MOL      0.029337
     83 N9         -2.3140    4.6310    1.9560 n         1 MOL     -0.264598
     84 C26        -2.3530    3.3820    2.6490 c3        1 MOL     -0.027590
     85 C27        -1.8470    2.2650    1.6640 c         1 MOL      0.576114
     86 O15        -0.9680    2.5150    0.8510 o         1 MOL     -0.518440
     87 C28        -1.7400    3.4040    4.0530 c3        1 MOL      0.095702
     88 C29        -2.3730    4.5010    4.9930 c3        1 MOL     -0.286835
     89 C30        -1.8790    2.0320    4.6740 c3        1 MOL     -0.011148
     90 C31        -3.9260    4.5500    5.0570 c3        1 MOL      0.013532
     91 H36        -1.3980    5.0340    1.7990 hn        1 MOL      0.206821
     92 H37        -3.3910    3.1550    2.8870 h1        1 MOL      0.078965
     93 H38        -0.6610    3.5550    4.1000 hc        1 MOL      0.027258
     94 H39        -2.0600    5.4950    4.6700 hc        1 MOL      0.081079
     95 H40        -1.8980    4.3460    5.9610 hc        1 MOL      0.081079
     96 H41        -1.6390    2.0720    5.7350 hc        1 MOL      0.004001
     97 H42        -2.8670    1.5940    4.5000 hc        1 MOL      0.004001
     98 H43        -1.2530    1.2840    4.1950 hc        1 MOL      0.004001
     99 H44        -4.4080    3.5670    4.9920 hc        1 MOL      0.009825
    100 H45        -4.2590    4.9220    6.0270 hc        1 MOL      0.009825
    101 H46        -4.3450    5.1200    4.2190 hc        1 MOL      0.009825
    102 N10        -2.3840    1.0320    1.7630 n         1 MOL     -0.614216
    103 C32        -2.0690    0.0030    0.7560 c3        1 MOL      0.305641
    104 C33        -3.3120   -0.7790    0.4130 c         1 MOL      0.403819
    105 O16        -3.2540   -1.9710   -0.0270 o         1 MOL     -0.520568
    106 C34        -1.0480   -0.9880    1.4000 c3        1 MOL     -0.169522
    107 C35        -0.4780   -1.9480    0.3500 c         1 MOL      0.783334
    108 O17        -0.3690   -1.6300   -0.8410 o         1 MOL     -0.814769
    109 O18        -0.0140   -3.0350    0.6670 o         1 MOL     -0.814769
    110 H47        -3.0690    0.8070    2.4790 hn        1 MOL      0.326322
    111 H48        -1.6270    0.4230   -0.1550 h1        1 MOL      0.005087
    112 H49        -1.5560   -1.5110    2.2120 hc        1 MOL      0.067875
    113 H50        -0.1330   -0.5420    1.7960 hc        1 MOL      0.067875
    114 N11        -4.4430   -0.1600    0.4190 n         1 MOL     -0.414759
    115 C36        -5.5970   -0.7030   -0.2490 c3        1 MOL      0.178624
    116 C37        -6.1900   -1.8790    0.5240 c         1 MOL      0.205598
    117 O19        -6.2080   -1.8880    1.7240 o         1 MOL     -0.433234
    118 C38        -6.5780    0.4090   -0.4740 c3        1 MOL     -0.132690
    119 C39        -6.0370    1.5890   -1.3660 ca        1 MOL      0.037671
    120 C40        -5.5100    2.7810   -0.7520 ca        1 MOL     -0.163173
    121 C41        -6.1450    1.5320   -2.7540 ca        1 MOL     -0.163173
    122 C42        -5.1210    3.8660   -1.5540 ca        1 MOL     -0.080745
    123 C43        -5.6020    2.6060   -3.5130 ca        1 MOL     -0.080745
    124 C44        -5.1300    3.7780   -2.9130 ca        1 MOL     -0.135143
    125 H51        -4.3570    0.8250    0.6350 hn        1 MOL      0.221548
    126 H52        -5.2530   -1.0690   -1.2120 h1        1 MOL      0.095278
    127 H53        -6.8750    0.8210    0.4930 hc        1 MOL      0.075305
    128 H54        -7.4530   -0.0190   -0.9570 hc        1 MOL      0.075305
    129 H55        -5.4650    2.9060    0.3220 ha        1 MOL      0.110092
    130 H56        -6.5580    0.6670   -3.2430 ha        1 MOL      0.110092
    131 H57        -4.7850    4.7710   -1.0680 ha        1 MOL      0.104447
    132 H58        -5.5730    2.5840   -4.5970 ha        1 MOL      0.104447
    133 H59        -4.7960    4.5160   -3.6260 ha        1 MOL      0.125800
    134 N12        -6.7580   -2.8850   -0.2280 n         1 MOL      0.054015
    135 C45        -7.5390   -4.0050    0.3530 c3        1 MOL     -0.078397
    136 C46        -6.5660   -4.9120    1.1520 c         1 MOL      0.435179
    137 O20        -6.9160   -5.4900    2.1590 o         1 MOL     -0.545123
    138 C47        -8.1730   -4.7810   -0.7800 c3        1 MOL     -0.002680
    139 C48        -7.2590   -4.4510   -1.9480 c3        1 MOL      0.052997
    140 C49        -7.0380   -2.9480   -1.6340 c3        1 MOL     -0.327678
    141 H60        -8.3280   -3.5940    0.9890 h1        1 MOL      0.074668
    142 H61        -8.2780   -5.8450   -0.5260 hc        1 MOL      0.028950
    143 H62        -9.1900   -4.4890   -1.0670 hc        1 MOL      0.028950
    144 H63        -6.3580   -5.0710   -1.8510 hc        1 MOL      0.008212
    145 H64        -7.7260   -4.6670   -2.9140 hc        1 MOL      0.008212
    146 H65        -6.2600   -2.5020   -2.2630 h1        1 MOL      0.109877
    147 H66        -7.9940   -2.5020   -1.8860 h1        1 MOL      0.109877
    148 N13        -5.2540   -4.9340    0.8590 n         1 MOL     -0.089578
    149 C50        -4.1660   -5.6420    1.4600 c3        1 MOL     -0.525611
    150 C51        -3.7760   -5.0900    2.8600 c         1 MOL      0.587081
    151 O21        -3.0000   -5.7580    3.5690 o         1 MOL     -0.566268
    152 C52        -2.9410   -5.5360    0.5690 c3        1 MOL      0.135273
    153 C53        -3.0750   -6.1690   -0.7990 c3        1 MOL     -0.013415
    154 C54        -1.8600   -6.0030   -1.7080 c         1 MOL      0.683765
    155 O22        -2.0000   -6.3070   -2.9410 o         1 MOL     -0.726520
    156 O23        -0.7070   -5.7310   -1.2640 o         1 MOL     -0.726520
    157 H67        -5.0800   -4.4170    0.0050 hn        1 MOL      0.255606
    158 H68        -4.4800   -6.6770    1.6110 h1        1 MOL      0.191868
    159 H69        -2.1320   -6.0570    1.0630 hc        1 MOL      0.038834
    160 H70        -2.6670   -4.4810    0.4600 hc        1 MOL      0.038834
    161 H71        -3.8970   -5.6440   -1.2910 hc        1 MOL     -0.024462
    162 H72        -3.3260   -7.2180   -0.8770 hc        1 MOL     -0.024462
    163 N14        -4.3520   -3.9740    3.2680 n         1 MOL     -0.140961
    164 C55        -4.1980   -3.3750    4.5930 c3        1 MOL     -0.285843
    165 H73        -3.1450   -3.3860    4.8770 h1        1 MOL      0.105793
    166 H74        -4.5570   -2.3450    4.5710 h1        1 MOL      0.105793
    167 H75        -4.7770   -3.9460    5.3200 h1        1 MOL      0.105793
    168 H76        -5.1200   -3.7120    2.6560 hn        1 MOL      0.185520
    169 Ca1         1.0960   -3.8970   -1.4980 Ca        1 MOL      1.820732
    170 O24         1.7980   -5.2370    0.6780 oh        1 MOL     -0.855635
    171 H77         2.1220   -4.8370    1.4900 ho        1 MOL      0.407461
    172 H78         1.5430   -6.1170    0.9520 ho        1 MOL      0.407461
    173 O25         2.0740   -2.3470   -3.5380 oh        1 MOL     -0.855635
    174 H79         2.4870   -2.5520   -4.3710 ho        1 MOL      0.407461
    175 H80         2.5430   -1.5780   -3.2210 ho        1 MOL      0.407461
    176 O26         2.2290   -5.8990   -2.7480 oh        1 MOL     -0.855635
    177 H81         2.0970   -6.1080   -3.6720 ho        1 MOL      0.407461
    178 H82         2.8050   -6.5770   -2.4220 ho        1 MOL      0.407461
    179 O27        -0.1020   -4.4470   -3.7820 oh        1 MOL     -0.855635
    180 H83        -0.8540   -5.0200   -3.6360 ho        1 MOL      0.407461
    181 H84        -0.1710   -4.1940   -4.7050 ho        1 MOL      0.407461
@<TRIPOS>BOND
     1    1    2 1   
     2    1    4 1   
     3    1    5 1   
     4    1    6 1   
     5    2    3 2   
     6    2    7 1   
     7    7    8 1   
     8    7   15 1   
     9    8    9 1   
    10    8   11 1   
    11    8   16 1   
    12    9   10 2   
    13    9   19 1   
    14   11   12 1   
    15   11   17 1   
    16   11   18 1   
    17   12   13 1   
    18   12   14 1   
    19   19   20 1   
    20   19   24 1   
    21   20   21 1   
    22   20   23 1   
    23   20   25 1   
    24   21   22 2   
    25   21   29 1   
    26   23   26 1   
    27   23   27 1   
    28   23   28 1   
    29   29   30 1   
    30   29   37 1   
    31   30   31 1   
    32   30   33 1   
    33   30   38 1   
    34   31   32 2   
    35   31   41 1   
    36   33   34 1   
    37   33   39 1   
    38   33   40 1   
    39   34   35 1   
    40   34   36 1   
    41   41   42 1   
    42   41   45 1   
    43   42   43 1   
    44   42   46 1   
    45   42   47 1   
    46   43   44 2   
    47   43   48 1   
    48   48   49 1   
    49   48   56 1   
    50   49   50 1   
    51   49   52 1   
    52   49   57 1   
    53   50   51 2   
    54   50   62 1   
    55   52   53 1   
    56   52   58 1   
    57   52   59 1   
    58   53   54 1   
    59   53   55 2   
    60   54   60 1   
    61   54   61 1   
    62   62   63 1   
    63   62   66 1   
    64   63   64 1   
    65   63   67 1   
    66   63   68 1   
    67   64   65 2   
    68   64   69 1   
    69   69   70 1   
    70   69   76 1   
    71   70   71 1   
    72   70   73 1   
    73   70   77 1   
    74   71   72 2   
    75   71   83 1   
    76   73   74 1   
    77   73   75 1   
    78   73   78 1   
    79   74   80 1   
    80   74   81 1   
    81   74   82 1   
    82   75   79 1   
    83   83   84 1   
    84   83   91 1   
    85   84   85 1   
    86   84   87 1   
    87   84   92 1   
    88   85   86 2   
    89   85  102 1   
    90   87   88 1   
    91   87   89 1   
    92   87   93 1   
    93   88   90 1   
    94   88   94 1   
    95   88   95 1   
    96   89   96 1   
    97   89   97 1   
    98   89   98 1   
    99   90   99 1   
   100   90  100 1   
   101   90  101 1   
   102  102  103 1   
   103  102  110 1   
   104  103  104 1   
   105  103  106 1   
   106  103  111 1   
   107  104  105 2   
   108  104  114 1   
   109  106  107 1   
   110  106  112 1   
   111  106  113 1   
   112  107  108 1   
   113  107  109 1   
   114  114  115 1   
   115  114  125 1   
   116  115  116 1   
   117  115  118 1   
   118  115  126 1   
   119  116  117 2   
   120  116  134 1   
   121  118  119 1   
   122  118  127 1   
   123  118  128 1   
   124  119  120 ar  
   125  119  121 ar  
   126  120  122 ar  
   127  120  129 1   
   128  121  123 ar  
   129  121  130 1   
   130  122  124 ar  
   131  122  131 1   
   132  123  124 ar  
   133  123  132 1   
   134  124  133 1   
   135  134  135 1   
   136  134  140 1   
   137  135  136 1   
   138  135  138 1   
   139  135  141 1   
   140  136  137 2   
   141  136  148 1   
   142  138  139 1   
   143  138  142 1   
   144  138  143 1   
   145  139  140 1   
   146  139  144 1   
   147  139  145 1   
   148  140  146 1   
   149  140  147 1   
   150  148  149 1   
   151  148  157 1   
   152  149  150 1   
   153  149  152 1   
   154  149  158 1   
   155  150  151 2   
   156  150  163 1   
   157  152  153 1   
   158  152  159 1   
   159  152  160 1   
   160  153  154 1   
   161  153  161 1   
   162  153  162 1   
   163  154  155 1   
   164  154  156 1   
   165  163  164 1   
   166  163  168 1   
   167  164  165 1   
   168  164  166 1   
   169  164  167 1   
   170  170  171 1   
   171  170  172 1   
   172  173  174 1   
   173  173  175 1   
   174  176  177 1   
   175  176  178 1   
   176  179  180 1   
   177  179  181 1   
@<TRIPOS>SUBSTRUCTURE
     1 MOL         1 TEMP              0 ****  ****    0 ROOT
