@<TRIPOS>MOLECULE
MOL
  175   173     1     0     0
SMALL
resp


@<TRIPOS>ATOM
      1 C1         -6.8770    7.9200    0.9290 c3        1 MOL     -0.358315
      2 C2         -7.9010    6.9660    0.2240 c         1 MOL      0.715751
      3 O1         -8.1850    7.0540   -1.0260 o         1 MOL     -0.613037
      4 H1         -7.3730    8.4480    1.7430 hc        1 MOL      0.089694
      5 H2         -6.0480    7.3340    1.3280 hc        1 MOL      0.089694
      6 H3         -6.4950    8.6420    0.2070 hc        1 MOL      0.089694
      7 N1         -8.4650    5.9990    0.9390 n         1 MOL     -0.734819
      8 C3         -9.5220    5.0530    0.3740 c3        1 MOL      0.476966
      9 C4         -8.7900    3.8530   -0.4050 c         1 MOL      0.376945
     10 O2         -9.4410    2.7700   -0.5980 o         1 MOL     -0.487734
     11 C5        -10.6100    4.6920    1.4440 c3        1 MOL     -0.364039
     12 C6        -11.9460    4.3080    0.8400 c         1 MOL      0.690764
     13 O3        -12.6200    3.5080    1.5150 o         1 MOL     -0.709409
     14 O4        -12.2710    4.6490   -0.3280 o         1 MOL     -0.709409
     15 H4         -8.2950    5.9190    1.9300 hn        1 MOL      0.324417
     16 H5        -10.1150    5.5430   -0.3990 h1        1 MOL      0.005594
     17 H6        -10.7330    5.4750    2.1890 hc        1 MOL      0.057623
     18 H7        -10.2740    3.8200    1.9920 hc        1 MOL      0.057623
     19 N2         -7.5060    4.0410   -0.7980 n         1 MOL     -0.502071
     20 C7         -6.6280    2.9850   -1.3110 c3        1 MOL      0.425695
     21 C8         -5.6910    2.4030   -0.1830 c         1 MOL      0.426129
     22 O5         -5.3780    3.1580    0.6750 o         1 MOL     -0.532429
     23 C9         -5.9240    3.7490   -2.4380 c3        1 MOL     -0.257626
     24 H8         -6.9790    4.8210   -0.4170 hn        1 MOL      0.274560
     25 H9         -7.2720    2.2120   -1.7410 h1        1 MOL     -0.016579
     26 H10        -6.7170    4.1100   -3.1030 hc        1 MOL      0.068290
     27 H11        -5.3980    4.6370   -2.0750 hc        1 MOL      0.068290
     28 H12        -5.3840    3.0260   -3.0520 hc        1 MOL      0.068290
     29 N3         -5.2000    1.1900   -0.1340 n         1 MOL     -0.400190
     30 C10        -5.5380    0.0480   -1.0420 c3        1 MOL     -0.102031
     31 C11        -5.5010   -1.4130   -0.3850 c         1 MOL      0.537128
     32 O6         -4.7400   -1.7060    0.5530 o         1 MOL     -0.503672
     33 C12        -4.5590    0.1480   -2.2790 c3        1 MOL     -0.059536
     34 C13        -3.1200   -0.2630   -1.8770 c         1 MOL      0.698959
     35 O7         -2.2650    0.4600   -1.3080 o         1 MOL     -0.724438
     36 O8         -2.7360   -1.3730   -2.3720 o         1 MOL     -0.724438
     37 H13        -4.4380    1.0830    0.5170 hn        1 MOL      0.315344
     38 H14        -6.5130    0.2340   -1.4980 h1        1 MOL      0.084704
     39 H15        -4.5400    1.1230   -2.7760 hc        1 MOL      0.009650
     40 H16        -5.0440   -0.5330   -2.9750 hc        1 MOL      0.009650
     41 N4         -6.4020   -2.3320   -0.8070 n         1 MOL     -0.446648
     42 C14        -6.8310   -3.5980   -0.1470 c3        1 MOL      0.105508
     43 C15        -6.6900   -4.8400   -1.0490 c         1 MOL      0.466139
     44 O9         -7.7570   -5.3380   -1.4820 o         1 MOL     -0.545580
     45 H17        -7.0360   -2.0150   -1.5290 hn        1 MOL      0.314424
     46 H18        -7.9030   -3.5350    0.0610 h1        1 MOL      0.054262
     47 H19        -6.3960   -3.7800    0.8300 h1        1 MOL      0.054262
     48 N5         -5.5240   -5.4300   -1.3430 n         1 MOL     -0.449927
     49 C16        -4.2580   -4.8520   -1.0120 c3        1 MOL      0.086754
     50 C17        -3.7690   -5.3500    0.3460 c         1 MOL      0.427375
     51 O10        -3.4400   -6.5400    0.5510 o         1 MOL     -0.535600
     52 C18        -3.2410   -5.2090   -2.1330 c3        1 MOL     -0.143017
     53 C19        -1.9410   -4.4870   -1.9460 c         1 MOL      0.770752
     54 N6         -0.9870   -4.5600   -2.8290 n         1 MOL     -0.845824
     55 O11        -1.7700   -3.7460   -0.9660 o         1 MOL     -0.803588
     56 H20        -5.4620   -6.3340   -1.8000 hn        1 MOL      0.316108
     57 H21        -4.2920   -3.7610   -1.0520 h1        1 MOL      0.072260
     58 H22        -3.6630   -4.9320   -3.1010 hc        1 MOL      0.056236
     59 H23        -3.0420   -6.2890   -2.1340 hc        1 MOL      0.056236
     60 H24        -1.0210   -5.2340   -3.5690 hn        1 MOL      0.382185
     61 H25        -0.1600   -4.0850   -2.4960 hn        1 MOL      0.382185
     62 N7         -3.6600   -4.4910    1.3330 n         1 MOL     -0.193839
     63 C20        -3.2810   -4.8360    2.7000 c3        1 MOL     -0.238379
     64 C21        -1.8020   -5.0060    2.9150 c         1 MOL      0.456464
     65 O12        -1.3880   -5.2660    4.0670 o         1 MOL     -0.554865
     66 H26        -3.9510   -3.5250    1.2350 hn        1 MOL      0.221487
     67 H27        -3.8700   -5.6690    3.0690 h1        1 MOL      0.122263
     68 H28        -3.6340   -4.0200    3.3310 h1        1 MOL      0.122263
     69 N8         -0.9820   -4.6500    1.8980 n         1 MOL     -0.075255
     70 C22         0.4890   -4.8990    2.0250 c3        1 MOL     -0.251298
     71 C23         1.3220   -3.6220    1.7750 c         1 MOL      0.425923
     72 O13         0.9450   -2.7420    0.9990 o         1 MOL     -0.530421
     73 C24         0.9280   -6.0480    1.0560 c3        1 MOL      0.476525
     74 C25         0.2890   -7.3650    1.4600 c3        1 MOL     -0.312734
     75 O14         0.8150   -5.7500   -0.3490 oh        1 MOL     -0.617677
     76 H29        -1.4220   -4.1570    1.1250 hn        1 MOL      0.214377
     77 H30         0.6310   -5.1610    3.0740 h1        1 MOL      0.087546
     78 H31         1.9940   -6.2760    1.0990 h1        1 MOL     -0.023272
     79 H32         0.9140   -4.8190   -0.5570 ho        1 MOL      0.371774
     80 H33         0.6110   -8.1110    0.7460 hc        1 MOL      0.074547
     81 H34         0.7210   -7.7310    2.3990 hc        1 MOL      0.074547
     82 H35        -0.8000   -7.3840    1.4010 hc        1 MOL      0.074547
     83 N9          2.5100   -3.6310    2.2750 n         1 MOL     -0.199116
     84 C26         3.4120   -2.4810    2.1620 c3        1 MOL      0.048021
     85 C27         4.2630   -2.6840    0.8920 c         1 MOL      0.369057
     86 O15         5.0750   -3.6290    0.8660 o         1 MOL     -0.559356
     87 C28         4.2560   -2.4600    3.4630 c3        1 MOL      0.049316
     88 C29         5.4230   -1.4600    3.4140 c3        1 MOL      0.069533
     89 C30         3.3100   -2.0080    4.6440 c3        1 MOL     -0.321991
     90 C31         5.0280    0.0290    3.1480 c3        1 MOL     -0.396618
     91 H36         2.8170   -4.4840    2.7240 hn        1 MOL      0.206900
     92 H37         2.8100   -1.5780    2.0570 h1        1 MOL      0.094935
     93 H38         4.7310   -3.4290    3.5890 hc        1 MOL      0.015785
     94 H39         6.0380   -1.7230    2.5580 hc        1 MOL      0.000332
     95 H40         5.9790   -1.6060    4.3490 hc        1 MOL      0.000332
     96 H41         3.6950   -2.3250    5.6100 hc        1 MOL      0.081267
     97 H42         3.2320   -0.9190    4.6150 hc        1 MOL      0.081267
     98 H43         2.3360   -2.5020    4.5800 hc        1 MOL      0.081267
     99 H44         4.4290    0.1130    2.2360 hc        1 MOL      0.098109
    100 H45         4.5670    0.4550    4.0440 hc        1 MOL      0.098109
    101 H46         6.0350    0.4260    3.0240 hc        1 MOL      0.098109
    102 N10         4.0620   -1.8580   -0.1330 n         1 MOL     -0.074599
    103 C32         4.6830   -2.0650   -1.4750 c3        1 MOL      0.006072
    104 C33         5.7560   -1.0620   -1.9210 c         1 MOL      0.553195
    105 O16         6.0430   -0.9400   -3.1230 o         1 MOL     -0.550690
    106 C34         3.5670   -2.3730   -2.6030 c3        1 MOL     -0.178576
    107 C35         2.5630   -3.5480   -2.2030 c         1 MOL      0.617933
    108 O17         3.0460   -4.7070   -2.3670 o         1 MOL     -0.627114
    109 O18         1.4110   -3.2210   -1.8250 o         1 MOL     -0.627114
    110 H47         3.4200   -1.1060    0.0610 hn        1 MOL      0.154796
    111 H48         5.2470   -2.9890   -1.4290 h1        1 MOL      0.089380
    112 H49         4.0520   -2.6090   -3.5540 hc        1 MOL      0.034036
    113 H50         2.9290   -1.4950   -2.6840 hc        1 MOL      0.034036
    114 N11         6.3240   -0.3460   -0.9620 n         1 MOL     -0.650830
    115 C36         7.3660    0.7210   -1.1140 c3        1 MOL      0.614540
    116 C37         6.8690    1.9890   -0.3480 c         1 MOL      0.248012
    117 O19         6.4150    1.7580    0.8110 o         1 MOL     -0.505510
    118 C38         8.7100    0.2490   -0.6260 c3        1 MOL     -0.390888
    119 C39         9.8680    1.2240   -0.6090 ca        1 MOL      0.187329
    120 C40        10.1590    1.9420    0.5410 ca        1 MOL     -0.207239
    121 C41        10.5370    1.3720   -1.8070 ca        1 MOL     -0.207239
    122 C42        11.1440    2.9820    0.4970 ca        1 MOL     -0.095432
    123 C43        11.4850    2.4030   -1.8750 ca        1 MOL     -0.095432
    124 C44        11.7710    3.2510   -0.7770 ca        1 MOL     -0.135765
    125 H51         6.0110   -0.6290   -0.0420 hn        1 MOL      0.303787
    126 H52         7.4170    1.0130   -2.1550 h1        1 MOL     -0.076904
    127 H53         8.9900   -0.5650   -1.2980 hc        1 MOL      0.110312
    128 H54         8.5840   -0.2080    0.3520 hc        1 MOL      0.110312
    129 H55         9.6280    1.8070    1.4690 ha        1 MOL      0.146315
    130 H56        10.3310    0.6880   -2.6220 ha        1 MOL      0.146315
    131 H57        11.3870    3.5580    1.3820 ha        1 MOL      0.107294
    132 H58        11.9860    2.5650   -2.8250 ha        1 MOL      0.107294
    133 H59        12.5100    4.0310   -0.9440 ha        1 MOL      0.108216
    134 N12         7.0800    3.2520   -0.7440 n         1 MOL     -0.126622
    135 C45         6.7570    4.3940    0.0230 c3        1 MOL     -0.102096
    136 C46         5.2990    4.8510   -0.1220 c         1 MOL      0.475229
    137 O20         5.0660    6.0500   -0.2510 o         1 MOL     -0.527248
    138 C47         7.8580    5.3620   -0.5180 c3        1 MOL     -0.011495
    139 C48         7.7140    5.1300   -1.9660 c3        1 MOL     -0.193119
    140 C49         7.7420    3.6280   -2.0470 c3        1 MOL     -0.037152
    141 H60         6.9400    4.1430    1.0640 h1        1 MOL      0.096406
    142 H61         7.7670    6.4000   -0.1960 hc        1 MOL      0.050073
    143 H62         8.8580    5.1000   -0.1810 hc        1 MOL      0.050073
    144 H63         6.7300    5.4610   -2.3130 hc        1 MOL      0.086138
    145 H64         8.5240    5.4760   -2.6080 hc        1 MOL      0.086138
    146 H65         7.2200    3.2400   -2.9220 h1        1 MOL      0.076642
    147 H66         8.7610    3.2410   -2.0440 h1        1 MOL      0.076642
    148 N13         4.2600    4.0360    0.1100 n         1 MOL     -0.288458
    149 C50         2.8240    4.4430    0.2220 c3        1 MOL     -0.102936
    150 C51         2.4490    4.9610    1.5980 c         1 MOL      0.475672
    151 O21         1.4130    5.5250    1.7350 o         1 MOL     -0.504455
    152 C52         1.9680    3.1890   -0.0240 c3        1 MOL     -0.059598
    153 C53         2.0900    2.0750    1.0360 c3        1 MOL      0.035940
    154 C54         1.2770    0.8750    0.4400 c         1 MOL      0.541405
    155 O22         0.1360    0.6000    0.9510 o         1 MOL     -0.686351
    156 O23         1.7010    0.0630   -0.4210 o         1 MOL     -0.686351
    157 H67         4.4760    3.0480    0.0970 hn        1 MOL      0.253429
    158 H68         2.5470    5.2060   -0.5080 h1        1 MOL      0.134123
    159 H69         2.3460    2.7310   -0.9400 hc        1 MOL      0.049963
    160 H70         0.9140    3.4790   -0.0260 hc        1 MOL      0.049963
    161 H71         1.6750    2.3720    2.0070 hc        1 MOL      0.000605
    162 H72         3.1180    1.7370    1.1500 hc        1 MOL      0.000605
    163 N14         3.3560    4.9280    2.5870 n         1 MOL     -0.210303
    164 C55         3.2290    5.6640    3.8630 c3        1 MOL     -0.041942
    165 H73         2.2990    6.2310    3.8640 h1        1 MOL      0.051486
    166 H74         3.2230    4.9570    4.6920 h1        1 MOL      0.051486
    167 H75         4.0710    6.3470    3.9730 h1        1 MOL      0.051486
    168 H76         4.0770    4.2250    2.4610 hn        1 MOL      0.165161
    169 Ca1        -0.4020   -1.3250   -0.9190 Ca        1 MOL      1.751152
    170 O24         0.5520   -0.9580   -3.4460 oh        1 MOL     -0.834582
    171 H77         1.2200   -1.5050   -3.8470 ho        1 MOL      0.401416
    172 H78        -0.2020   -1.0170   -4.0350 ho        1 MOL      0.401416
    173 O25        -2.0390   -1.6510    1.1650 oh        1 MOL     -0.834582
    174 H79        -1.9820   -1.0930    1.9410 ho        1 MOL      0.401416
    175 H80        -2.9700   -1.6580    0.9410 ho        1 MOL      0.401416
@<TRIPOS>BOND
     1    1    2 1   
     2    1    4 1   
     3    1    5 1   
     4    1    6 1   
     5    2    3 2   
     6    2    7 1   
     7    7    8 1   
     8    7   15 1   
     9    8    9 1   
    10    8   11 1   
    11    8   16 1   
    12    9   10 2   
    13    9   19 1   
    14   11   12 1   
    15   11   17 1   
    16   11   18 1   
    17   12   13 1   
    18   12   14 1   
    19   19   20 1   
    20   19   24 1   
    21   20   21 1   
    22   20   23 1   
    23   20   25 1   
    24   21   22 2   
    25   21   29 1   
    26   23   26 1   
    27   23   27 1   
    28   23   28 1   
    29   29   30 1   
    30   29   37 1   
    31   30   31 1   
    32   30   33 1   
    33   30   38 1   
    34   31   32 2   
    35   31   41 1   
    36   33   34 1   
    37   33   39 1   
    38   33   40 1   
    39   34   35 1   
    40   34   36 1   
    41   41   42 1   
    42   41   45 1   
    43   42   43 1   
    44   42   46 1   
    45   42   47 1   
    46   43   44 2   
    47   43   48 1   
    48   48   49 1   
    49   48   56 1   
    50   49   50 1   
    51   49   52 1   
    52   49   57 1   
    53   50   51 2   
    54   50   62 1   
    55   52   53 1   
    56   52   58 1   
    57   52   59 1   
    58   53   54 1   
    59   53   55 2   
    60   54   60 1   
    61   54   61 1   
    62   62   63 1   
    63   62   66 1   
    64   63   64 1   
    65   63   67 1   
    66   63   68 1   
    67   64   65 2   
    68   64   69 1   
    69   69   70 1   
    70   69   76 1   
    71   70   71 1   
    72   70   73 1   
    73   70   77 1   
    74   71   72 2   
    75   71   83 1   
    76   73   74 1   
    77   73   75 1   
    78   73   78 1   
    79   74   80 1   
    80   74   81 1   
    81   74   82 1   
    82   75   79 1   
    83   83   84 1   
    84   83   91 1   
    85   84   85 1   
    86   84   87 1   
    87   84   92 1   
    88   85   86 2   
    89   85  102 1   
    90   87   88 1   
    91   87   89 1   
    92   87   93 1   
    93   88   90 1   
    94   88   94 1   
    95   88   95 1   
    96   89   96 1   
    97   89   97 1   
    98   89   98 1   
    99   90   99 1   
   100   90  100 1   
   101   90  101 1   
   102  102  103 1   
   103  102  110 1   
   104  103  104 1   
   105  103  106 1   
   106  103  111 1   
   107  104  105 2   
   108  104  114 1   
   109  106  107 1   
   110  106  112 1   
   111  106  113 1   
   112  107  108 1   
   113  107  109 1   
   114  114  115 1   
   115  114  125 1   
   116  115  116 1   
   117  115  118 1   
   118  115  126 1   
   119  116  117 2   
   120  116  134 1   
   121  118  119 1   
   122  118  127 1   
   123  118  128 1   
   124  119  120 ar  
   125  119  121 ar  
   126  120  122 ar  
   127  120  129 1   
   128  121  123 ar  
   129  121  130 1   
   130  122  124 ar  
   131  122  131 1   
   132  123  124 ar  
   133  123  132 1   
   134  124  133 1   
   135  134  135 1   
   136  134  140 1   
   137  135  136 1   
   138  135  138 1   
   139  135  141 1   
   140  136  137 2   
   141  136  148 1   
   142  138  139 1   
   143  138  142 1   
   144  138  143 1   
   145  139  140 1   
   146  139  144 1   
   147  139  145 1   
   148  140  146 1   
   149  140  147 1   
   150  148  149 1   
   151  148  157 1   
   152  149  150 1   
   153  149  152 1   
   154  149  158 1   
   155  150  151 2   
   156  150  163 1   
   157  152  153 1   
   158  152  159 1   
   159  152  160 1   
   160  153  154 1   
   161  153  161 1   
   162  153  162 1   
   163  154  155 1   
   164  154  156 1   
   165  163  164 1   
   166  163  168 1   
   167  164  165 1   
   168  164  166 1   
   169  164  167 1   
   170  170  171 1   
   171  170  172 1   
   172  173  174 1   
   173  173  175 1   
@<TRIPOS>SUBSTRUCTURE
     1 MOL         1 TEMP              0 ****  ****    0 ROOT
