@<TRIPOS>MOLECULE
MOL
  178   175     1     0     0
SMALL
resp


@<TRIPOS>ATOM
      1 C1          2.3520   -0.7360    4.6920 c3        1 MOL     -0.265516
      2 C2          3.4970   -0.0660    3.9600 c         1 MOL      0.721991
      3 O1          3.3890    1.0580    3.5330 o         1 MOL     -0.572323
      4 H1          2.7490   -1.4800    5.3830 hc        1 MOL      0.058822
      5 H2          1.7890    0.0120    5.2490 hc        1 MOL      0.058822
      6 H3          1.6960   -1.2240    3.9710 hc        1 MOL      0.058822
      7 N1          4.6170   -0.7420    4.0320 n         1 MOL     -0.676467
      8 C3          5.9350   -0.4440    3.4860 c3        1 MOL      0.444296
      9 C4          6.4850   -1.3910    2.4210 c         1 MOL      0.445079
     10 O2          6.8990   -0.9170    1.3780 o         1 MOL     -0.446664
     11 C5          6.8520   -0.2810    4.6550 c3        1 MOL     -0.103714
     12 C6          8.2680    0.1760    4.2060 c         1 MOL      0.712890
     13 O3          9.2020   -0.6110    4.4860 o         1 MOL     -0.728139
     14 O4          8.3780    1.2540    3.6350 o         1 MOL     -0.728139
     15 H4          4.6050   -1.5890    4.5780 hn        1 MOL      0.284737
     16 H5          5.8500    0.5440    3.0310 h1        1 MOL     -0.022357
     17 H6          6.8830   -1.2960    5.0520 hc        1 MOL     -0.047311
     18 H7          6.5390    0.4370    5.4210 hc        1 MOL     -0.047311
     19 N2          6.3070   -2.6950    2.5670 n         1 MOL     -0.554335
     20 C7          6.7050   -3.7320    1.6640 c3        1 MOL      0.225318
     21 C8          6.3740   -3.6020    0.1420 c         1 MOL      0.480597
     22 O5          7.1840   -3.8680   -0.7420 o         1 MOL     -0.545285
     23 C9          8.1260   -4.0370    2.0460 c3        1 MOL     -0.380986
     24 H8          5.9340   -2.9550    3.4700 hn        1 MOL      0.314513
     25 H9          6.2600   -4.7030    1.8470 h1        1 MOL      0.034163
     26 H10         8.1280   -4.2080    3.1290 hc        1 MOL      0.102450
     27 H11         8.5040   -4.9050    1.5100 hc        1 MOL      0.102450
     28 H12         8.8870   -3.3170    1.7450 hc        1 MOL      0.102450
     29 N3          5.1690   -3.2270   -0.1060 n         1 MOL     -0.252518
     30 C10         4.5920   -2.8940   -1.4110 c3        1 MOL      0.344658
     31 C11         5.3450   -1.7920   -2.1070 c         1 MOL      0.322334
     32 O6          5.4040   -1.8010   -3.3700 o         1 MOL     -0.523348
     33 C12         4.3100   -4.1750   -2.2820 c3        1 MOL     -0.373912
     34 C13         3.3940   -5.1940   -1.6550 c         1 MOL      0.640443
     35 O7          3.6990   -6.3780   -1.4980 o         1 MOL     -0.662444
     36 O8          2.2590   -4.7870   -1.2290 o         1 MOL     -0.662444
     37 H13         4.6520   -3.0960    0.7520 hn        1 MOL      0.177578
     38 H14         3.5520   -2.6240   -1.2150 h1        1 MOL     -0.052833
     39 H15         5.2640   -4.6620   -2.5100 hc        1 MOL      0.080218
     40 H16         3.8800   -3.8340   -3.2270 hc        1 MOL      0.080218
     41 N4          5.9360   -0.8820   -1.3570 n         1 MOL      0.025106
     42 C14         6.4490    0.3420   -1.9720 c3        1 MOL     -0.313826
     43 C15         5.4790    1.1200   -2.8470 c         1 MOL      0.509269
     44 O9          5.8230    1.9810   -3.6480 o         1 MOL     -0.549335
     45 H17         5.9870   -1.1280   -0.3760 hn        1 MOL      0.011117
     46 H18         7.2520    0.0600   -2.6510 h1        1 MOL      0.146856
     47 H19         6.8090    0.8590   -1.0880 h1        1 MOL      0.146856
     48 N5          4.1560    1.0030   -2.6300 n         1 MOL     -0.190884
     49 C16         3.1100    1.6210   -3.4850 c3        1 MOL     -0.158849
     50 C17         2.8900    3.1100   -3.4090 c         1 MOL      0.511833
     51 O10         2.3480    3.6240   -4.3900 o         1 MOL     -0.527825
     52 C18         1.8270    0.8730   -3.1950 c3        1 MOL     -0.237836
     53 C19         1.8010   -0.6030   -3.4640 c         1 MOL      0.607303
     54 N6          1.9670   -1.0050   -4.6740 n         1 MOL     -0.794960
     55 O11         1.6510   -1.3890   -2.5660 o         1 MOL     -0.516367
     56 H20         3.8800    0.3210   -1.9410 hn        1 MOL      0.159430
     57 H21         3.4070    1.3790   -4.5120 h1        1 MOL      0.119298
     58 H22         1.0290    1.2990   -3.7950 hc        1 MOL      0.129174
     59 H23         1.6450    1.0610   -2.1370 hc        1 MOL      0.129174
     60 H24         2.2820   -0.3180   -5.3390 hn        1 MOL      0.373319
     61 H25         1.8500   -2.0020   -4.7810 hn        1 MOL      0.373319
     62 N7          3.3150    3.7900   -2.3530 n         1 MOL     -0.199735
     63 C20         3.1980    5.2810   -2.1480 c3        1 MOL     -0.291295
     64 C21         1.7850    5.8320   -1.9030 c         1 MOL      0.727499
     65 O12         0.8550    5.2070   -2.3920 o         1 MOL     -0.480675
     66 H26         3.6870    3.2580   -1.5780 hn        1 MOL      0.225849
     67 H27         3.5410    5.7900   -3.0440 h1        1 MOL      0.121298
     68 H28         3.8180    5.5010   -1.2820 h1        1 MOL      0.121298
     69 N8          1.6010    6.9410   -1.1330 n         1 MOL     -0.582766
     70 C22         0.3440    7.7040   -0.8950 c3        1 MOL     -0.150811
     71 C23        -0.7200    6.9870   -0.1030 c         1 MOL      0.404782
     72 O13        -1.7690    7.5280    0.2110 o         1 MOL     -0.541682
     73 C24         0.6040    9.0750   -0.3340 c3        1 MOL      0.474295
     74 C25         1.0920    9.0010    1.1350 c3        1 MOL     -0.418423
     75 O14         1.5200    9.8630   -1.1070 oh        1 MOL     -0.637009
     76 H29         2.4340    7.3960   -0.7860 hn        1 MOL      0.264837
     77 H30        -0.0920    7.8880   -1.8710 h1        1 MOL      0.149065
     78 H31        -0.3280    9.6480   -0.4280 h1        1 MOL      0.039144
     79 H32         2.3990    9.5360   -0.8640 ho        1 MOL      0.383051
     80 H33         0.1850    8.7590    1.6870 hc        1 MOL      0.102584
     81 H34         1.8910    8.2730    1.3260 hc        1 MOL      0.102584
     82 H35         1.5590    9.9210    1.4860 hc        1 MOL      0.102584
     83 N9         -0.5600    5.6400   -0.0270 n         1 MOL     -0.072649
     84 C26        -1.4620    4.6760    0.6030 c3        1 MOL     -0.082662
     85 C27        -1.4170    3.3220   -0.1870 c         1 MOL      0.383292
     86 O15        -0.5350    3.0710   -1.0440 o         1 MOL     -0.451472
     87 C28        -1.0520    4.4390    2.0590 c3        1 MOL      0.038107
     88 C29         0.4710    4.1290    2.1880 c3        1 MOL     -0.180532
     89 C30        -1.4580    5.6980    2.8120 c3        1 MOL     -0.021308
     90 C31         0.9490    3.8390    3.6540 c3        1 MOL     -0.090563
     91 H36         0.3210    5.2660   -0.3450 hn        1 MOL      0.092607
     92 H37        -2.4260    5.1840    0.5410 h1        1 MOL      0.085645
     93 H38        -1.6420    3.6390    2.5160 hc        1 MOL      0.042722
     94 H39         1.0600    4.9560    1.7840 hc        1 MOL      0.112037
     95 H40         0.6980    3.1860    1.6940 hc        1 MOL      0.112037
     96 H41        -1.2000    5.4470    3.8430 hc        1 MOL     -0.000684
     97 H42        -0.8940    6.5930    2.5460 hc        1 MOL     -0.000684
     98 H43        -2.5240    5.9070    2.8850 hc        1 MOL     -0.000684
     99 H44         1.1840    4.7860    4.1490 hc        1 MOL      0.030982
    100 H45         0.1690    3.3480    4.2500 hc        1 MOL      0.030982
    101 H46         1.9010    3.3270    3.5950 hc        1 MOL      0.030982
    102 N10        -2.3360    2.4460    0.0840 n         1 MOL     -0.369709
    103 C32        -2.3810    1.0780   -0.4550 c3        1 MOL     -0.033189
    104 C33        -3.8130    0.3990   -0.4700 c         1 MOL      0.543739
    105 O16        -3.9130   -0.8140   -0.4800 o         1 MOL     -0.481879
    106 C34        -1.2120    0.2530    0.2280 c3        1 MOL     -0.019632
    107 C35        -0.8300   -1.0390   -0.4930 c         1 MOL      0.567048
    108 O17         0.0850   -1.6980    0.0020 o         1 MOL     -0.690591
    109 O18        -1.2910   -1.3710   -1.5720 o         1 MOL     -0.690591
    110 H47        -2.9670    2.8430    0.7710 hn        1 MOL      0.236437
    111 H48        -2.1050    0.9830   -1.5040 h1        1 MOL      0.091847
    112 H49        -1.4900   -0.0540    1.2290 hc        1 MOL      0.032930
    113 H50        -0.3710    0.9260    0.4060 hc        1 MOL      0.032930
    114 N11        -4.9030    1.1180   -0.4760 n         1 MOL     -0.414785
    115 C36        -6.2060    0.5100   -0.6130 c3        1 MOL      0.278530
    116 C37        -6.5710   -0.3800    0.6020 c         1 MOL      0.126829
    117 O19        -6.4020    0.0510    1.7370 o         1 MOL     -0.454744
    118 C38        -7.2520    1.5160   -0.8810 c3        1 MOL     -0.305361
    119 C39        -8.6480    0.9630   -1.0260 ca        1 MOL      0.078154
    120 C40        -9.1330    0.5230   -2.2990 ca        1 MOL     -0.148671
    121 C41        -9.4990    0.8640    0.0680 ca        1 MOL     -0.148671
    122 C42       -10.4180    0.0240   -2.5170 ca        1 MOL     -0.147539
    123 C43       -10.8100    0.2920   -0.1530 ca        1 MOL     -0.147539
    124 C44       -11.2470   -0.1500   -1.4300 ca        1 MOL     -0.060756
    125 H51        -4.8300    2.1070   -0.5990 hn        1 MOL      0.237598
    126 H52        -6.1470   -0.1410   -1.4980 h1        1 MOL      0.000976
    127 H53        -7.0480    2.0580   -1.8010 hc        1 MOL      0.119216
    128 H54        -7.3830    2.2430   -0.0890 hc        1 MOL      0.119216
    129 H55        -8.4820    0.5310   -3.1580 ha        1 MOL      0.129895
    130 H56        -9.2150    1.1980    1.0470 ha        1 MOL      0.129895
    131 H57       -10.6940   -0.3360   -3.4940 ha        1 MOL      0.116007
    132 H58       -11.5220    0.3000    0.6540 ha        1 MOL      0.116007
    133 H59       -12.2820   -0.4100   -1.5590 ha        1 MOL      0.089299
    134 N12        -7.0120   -1.6060    0.3980 n         1 MOL      0.088968
    135 C45        -7.4300   -2.4780    1.5450 c3        1 MOL      0.189949
    136 C46        -6.3250   -2.7470    2.5220 c         1 MOL      0.146914
    137 O20        -6.6210   -3.0770    3.6770 o         1 MOL     -0.524273
    138 C47        -7.9620   -3.8820    0.9670 c3        1 MOL     -0.225120
    139 C48        -8.1910   -3.5460   -0.5290 c3        1 MOL      0.049774
    140 C49        -7.3570   -2.3080   -0.8700 c3        1 MOL     -0.034949
    141 H60        -8.2720   -2.0060    2.0520 h1        1 MOL      0.043970
    142 H61        -7.1440   -4.5900    0.9450 hc        1 MOL      0.086053
    143 H62        -8.9100   -4.1640    1.4220 hc        1 MOL      0.086053
    144 H63        -7.8940   -4.3430   -1.1990 hc        1 MOL      0.002903
    145 H64        -9.2680   -3.4120   -0.6430 hc        1 MOL      0.002903
    146 H65        -6.4190   -2.6260   -1.3370 h1        1 MOL      0.035331
    147 H66        -7.9850   -1.6990   -1.5230 h1        1 MOL      0.035331
    148 N13        -5.0590   -2.5440    2.2010 n         1 MOL      0.180204
    149 C50        -3.8680   -2.8310    3.0060 c3        1 MOL     -0.387615
    150 C51        -3.4840   -1.6470    3.8550 c         1 MOL      0.555212
    151 O21        -2.7530   -1.7300    4.7860 o         1 MOL     -0.571545
    152 C52        -2.7340   -3.2270    2.0080 c3        1 MOL      0.140643
    153 C53        -2.8040   -4.6230    1.2910 c3        1 MOL     -0.254906
    154 C54        -1.7370   -4.7530    0.2700 c         1 MOL      0.768627
    155 O22        -0.5570   -4.7950    0.5510 o         1 MOL     -0.779203
    156 O23        -1.9750   -4.5990   -0.9590 o         1 MOL     -0.779203
    157 H67        -4.9490   -2.1230    1.2890 hn        1 MOL      0.038464
    158 H68        -4.1480   -3.6400    3.6800 h1        1 MOL      0.169904
    159 H69        -1.7840   -3.2180    2.5550 hc        1 MOL      0.069969
    160 H70        -2.6450   -2.4240    1.2790 hc        1 MOL      0.069969
    161 H71        -3.7650   -4.8280    0.8300 hc        1 MOL      0.032381
    162 H72        -2.5950   -5.3470    2.0840 hc        1 MOL      0.032381
    163 N14        -4.1130   -0.5090    3.7000 n         1 MOL     -0.118695
    164 C55        -4.2120    0.6270    4.6380 c3        1 MOL     -0.281901
    165 H73        -4.1690    1.5630    4.0800 h1        1 MOL      0.109611
    166 H74        -5.1560    0.5710    5.1800 h1        1 MOL      0.109611
    167 H75        -3.3830    0.5890    5.3450 h1        1 MOL      0.109611
    168 H76        -4.6540   -0.4200    2.8490 hn        1 MOL      0.125802
    169 Ca1         0.1460   -3.6080   -1.9160 Ca        1 MOL      1.703775
    170 O24         0.1420   -6.3720   -2.7920 oh        1 MOL     -0.837120
    171 H77         0.0840   -7.0680   -3.4400 ho        1 MOL      0.412992
    172 H78         0.4450   -6.8120   -1.9980 ho        1 MOL      0.412992
    173 O25         1.4660   -3.9250   -4.4640 oh        1 MOL     -0.837120
    174 H79         0.9040   -4.6140   -4.8140 ho        1 MOL      0.412992
    175 H80         2.1970   -3.8690   -5.0750 ho        1 MOL      0.412992
    176 O26        -1.4790   -3.4710   -3.9500 oh        1 MOL     -0.837120
    177 H81        -1.6250   -3.8600   -4.8050 ho        1 MOL      0.412992
    178 H82        -1.9770   -2.6470   -3.9660 ho        1 MOL      0.412992
@<TRIPOS>BOND
     1    1    2 1   
     2    1    4 1   
     3    1    5 1   
     4    1    6 1   
     5    2    3 2   
     6    2    7 1   
     7    7    8 1   
     8    7   15 1   
     9    8    9 1   
    10    8   11 1   
    11    8   16 1   
    12    9   10 2   
    13    9   19 1   
    14   11   12 1   
    15   11   17 1   
    16   11   18 1   
    17   12   13 1   
    18   12   14 1   
    19   19   20 1   
    20   19   24 1   
    21   20   21 1   
    22   20   23 1   
    23   20   25 1   
    24   21   22 2   
    25   21   29 1   
    26   23   26 1   
    27   23   27 1   
    28   23   28 1   
    29   29   30 1   
    30   29   37 1   
    31   30   31 1   
    32   30   33 1   
    33   30   38 1   
    34   31   32 2   
    35   31   41 1   
    36   33   34 1   
    37   33   39 1   
    38   33   40 1   
    39   34   35 1   
    40   34   36 1   
    41   41   42 1   
    42   41   45 1   
    43   42   43 1   
    44   42   46 1   
    45   42   47 1   
    46   43   44 2   
    47   43   48 1   
    48   48   49 1   
    49   48   56 1   
    50   49   50 1   
    51   49   52 1   
    52   49   57 1   
    53   50   51 2   
    54   50   62 1   
    55   52   53 1   
    56   52   58 1   
    57   52   59 1   
    58   53   54 1   
    59   53   55 2   
    60   54   60 1   
    61   54   61 1   
    62   62   63 1   
    63   62   66 1   
    64   63   64 1   
    65   63   67 1   
    66   63   68 1   
    67   64   65 2   
    68   64   69 1   
    69   69   70 1   
    70   69   76 1   
    71   70   71 1   
    72   70   73 1   
    73   70   77 1   
    74   71   72 2   
    75   71   83 1   
    76   73   74 1   
    77   73   75 1   
    78   73   78 1   
    79   74   80 1   
    80   74   81 1   
    81   74   82 1   
    82   75   79 1   
    83   83   84 1   
    84   83   91 1   
    85   84   85 1   
    86   84   87 1   
    87   84   92 1   
    88   85   86 2   
    89   85  102 1   
    90   87   88 1   
    91   87   89 1   
    92   87   93 1   
    93   88   90 1   
    94   88   94 1   
    95   88   95 1   
    96   89   96 1   
    97   89   97 1   
    98   89   98 1   
    99   90   99 1   
   100   90  100 1   
   101   90  101 1   
   102  102  103 1   
   103  102  110 1   
   104  103  104 1   
   105  103  106 1   
   106  103  111 1   
   107  104  105 2   
   108  104  114 1   
   109  106  107 1   
   110  106  112 1   
   111  106  113 1   
   112  107  108 1   
   113  107  109 1   
   114  114  115 1   
   115  114  125 1   
   116  115  116 1   
   117  115  118 1   
   118  115  126 1   
   119  116  117 2   
   120  116  134 1   
   121  118  119 1   
   122  118  127 1   
   123  118  128 1   
   124  119  120 ar  
   125  119  121 ar  
   126  120  122 ar  
   127  120  129 1   
   128  121  123 ar  
   129  121  130 1   
   130  122  124 ar  
   131  122  131 1   
   132  123  124 ar  
   133  123  132 1   
   134  124  133 1   
   135  134  135 1   
   136  134  140 1   
   137  135  136 1   
   138  135  138 1   
   139  135  141 1   
   140  136  137 2   
   141  136  148 1   
   142  138  139 1   
   143  138  142 1   
   144  138  143 1   
   145  139  140 1   
   146  139  144 1   
   147  139  145 1   
   148  140  146 1   
   149  140  147 1   
   150  148  149 1   
   151  148  157 1   
   152  149  150 1   
   153  149  152 1   
   154  149  158 1   
   155  150  151 2   
   156  150  163 1   
   157  152  153 1   
   158  152  159 1   
   159  152  160 1   
   160  153  154 1   
   161  153  161 1   
   162  153  162 1   
   163  154  155 1   
   164  154  156 1   
   165  163  164 1   
   166  163  168 1   
   167  164  165 1   
   168  164  166 1   
   169  164  167 1   
   170  170  171 1   
   171  170  172 1   
   172  173  174 1   
   173  173  175 1   
   174  176  177 1   
   175  176  178 1   
@<TRIPOS>SUBSTRUCTURE
     1 MOL         1 TEMP              0 ****  ****    0 ROOT
