@<TRIPOS>MOLECULE
MOL
  192   187     1     0     0
SMALL
resp


@<TRIPOS>ATOM
      1 C1         -9.2640    0.0950   -2.6980 c3        1 MOL     -0.441626
      2 C2         -8.2490   -0.1210   -1.5370 c         1 MOL      0.761251
      3 O1         -7.0210   -0.3310   -1.7070 o         1 MOL     -0.754314
      4 H1         -8.7450    0.0190   -3.6520 hc        1 MOL      0.116593
      5 H2        -10.0420   -0.6680   -2.6470 hc        1 MOL      0.116593
      6 H3         -9.7160    1.0830   -2.6080 hc        1 MOL      0.116593
      7 N1         -8.6890   -0.1960   -0.3130 n         1 MOL     -0.557955
      8 C3         -7.8340   -0.2710    0.8890 c3        1 MOL     -0.033665
      9 C4         -7.3300   -1.6830    1.2090 c         1 MOL      0.591183
     10 O2         -7.3450   -2.1220    2.3510 o         1 MOL     -0.452187
     11 C5         -8.5460    0.5010    1.9540 c3        1 MOL     -0.220645
     12 C6         -9.9620    0.1150    2.3310 c         1 MOL      0.734187
     13 O3        -10.5730    0.8550    3.1580 o         1 MOL     -0.652917
     14 O4        -10.4430   -0.9510    1.9160 o         1 MOL     -0.652917
     15 H4         -9.7040   -0.1520   -0.2570 hn        1 MOL      0.294099
     16 H5         -6.9580    0.3190    0.6080 h1        1 MOL      0.163579
     17 H6         -8.6490    1.5410    1.6610 hc        1 MOL      0.065375
     18 H7         -7.8360    0.3920    2.7770 hc        1 MOL      0.065375
     19 N2         -6.8060   -2.4040    0.1880 n         1 MOL     -0.577948
     20 C7         -6.1740   -3.6880    0.3680 c3        1 MOL      0.095047
     21 C8         -4.7260   -3.5630    0.8630 c         1 MOL      0.374406
     22 O5         -4.3770   -4.3970    1.7480 o         1 MOL     -0.559543
     23 C9         -6.1490   -4.5540   -0.8800 c3        1 MOL      0.090859
     24 C10        -7.4810   -4.6690   -1.5760 c3        1 MOL     -0.223232
     25 C11        -7.3760   -5.4630   -2.8900 c3        1 MOL      0.090511
     26 C12        -8.6050   -5.2680   -3.7090 c3        1 MOL      0.042830
     27 N3         -8.6220   -6.1100   -4.9730 n4        1 MOL     -0.386134
     28 H8         -6.7390   -1.8900   -0.6890 hn        1 MOL      0.411202
     29 H9         -6.7490   -4.1760    1.1660 h1        1 MOL      0.091338
     30 H10        -5.7520   -5.5410   -0.6560 hc        1 MOL      0.008443
     31 H11        -5.4250   -4.1230   -1.5680 hc        1 MOL      0.008443
     32 H12        -7.9330   -3.6970   -1.7950 hc        1 MOL      0.068963
     33 H13        -8.0470   -5.3190   -0.9000 hc        1 MOL      0.068963
     34 H14        -6.9470   -6.4650   -2.7730 hc        1 MOL      0.006829
     35 H15        -6.6710   -4.9110   -3.5090 hc        1 MOL      0.006829
     36 H16        -8.6110   -4.1820   -3.8090 hx        1 MOL      0.068476
     37 H17        -9.4760   -5.5500   -3.1200 hx        1 MOL      0.068476
     38 H18        -7.8440   -5.9040   -5.5860 hn        1 MOL      0.301220
     39 H19        -8.5590   -7.0830   -4.6970 hn        1 MOL      0.301220
     40 H20        -9.5320   -5.9620   -5.3870 hn        1 MOL      0.301220
     41 N4         -3.9250   -2.5610    0.6190 n         1 MOL     -0.254041
     42 C13        -3.8700   -1.6150   -0.4700 c3        1 MOL     -0.052305
     43 C14        -4.0740   -0.1910    0.1600 c         1 MOL      0.169240
     44 O6         -3.7780   -0.0340    1.3570 o         1 MOL     -0.383289
     45 C15        -2.6760   -1.8090   -1.3620 c3        1 MOL     -0.009670
     46 C16        -1.3580   -2.0060   -0.6930 c         1 MOL      0.690218
     47 O7         -1.0050   -1.2140    0.2310 o         1 MOL     -0.725693
     48 O8         -0.5610   -2.9010   -1.0500 o         1 MOL     -0.725693
     49 H21        -3.1710   -2.5530    1.2790 hn        1 MOL      0.325164
     50 H22        -4.7190   -1.8100   -1.1340 h1        1 MOL      0.082328
     51 H23        -2.6080   -0.9350   -2.0090 hc        1 MOL     -0.009623
     52 H24        -2.7730   -2.6460   -2.0460 hc        1 MOL     -0.009623
     53 N5         -4.3550    0.7790   -0.6930 n         1 MOL     -0.044997
     54 C17        -4.4190    2.2070   -0.4960 c3        1 MOL     -0.172038
     55 C18        -3.1590    2.7470    0.2020 c         1 MOL      0.575051
     56 O9         -2.1100    2.0160    0.3850 o         1 MOL     -0.626651
     57 H25        -4.4190    0.4940   -1.6570 hn        1 MOL      0.221070
     58 H26        -5.2830    2.3490    0.1550 h1        1 MOL      0.079727
     59 H27        -4.5780    2.7100   -1.4410 h1        1 MOL      0.079727
     60 N6         -3.2970    3.9890    0.6950 n         1 MOL     -0.364001
     61 C19        -2.2000    4.8900    1.2540 c3        1 MOL      0.015849
     62 C20        -2.4290    6.3850    0.9680 c         1 MOL      0.610641
     63 O10        -3.5060    6.7890    0.6050 o         1 MOL     -0.542091
     64 C21        -1.9720    4.6040    2.7220 c3        1 MOL     -0.172857
     65 C22        -1.6350    3.1790    3.0560 c         1 MOL      0.676056
     66 O11        -2.3320    2.5550    3.8670 o         1 MOL     -0.666302
     67 O12        -0.5310    2.7240    2.6910 o         1 MOL     -0.666302
     68 H28        -4.1780    4.3980    0.4180 hn        1 MOL      0.247200
     69 H29        -1.3140    4.6850    0.6560 h1        1 MOL      0.175540
     70 H30        -2.8540    4.9000    3.2930 hc        1 MOL      0.054604
     71 H31        -1.1570    5.2490    3.0470 hc        1 MOL      0.054604
     72 N7         -1.4130    7.2860    1.0230 n         1 MOL     -0.577156
     73 C23        -0.0600    7.1410    1.4910 c3        1 MOL      0.045620
     74 C24         0.8620    6.4320    0.5060 c         1 MOL      0.481445
     75 O13         0.7620    6.6080   -0.6970 o         1 MOL     -0.459542
     76 H32        -1.6750    8.2320    0.7900 hn        1 MOL      0.342761
     77 H33         0.0110    6.5490    2.3940 h1        1 MOL      0.060666
     78 H34         0.3800    8.0970    1.7810 h1        1 MOL      0.060666
     79 N8          1.8610    5.7060    1.0340 n         1 MOL     -0.457755
     80 C25         2.6360    4.7300    0.2470 c3        1 MOL     -0.034284
     81 C26         1.7980    3.6570   -0.4320 c         1 MOL      0.576759
     82 O14         0.9340    3.1320    0.1710 o         1 MOL     -0.677866
     83 C27         3.7330    4.1280    1.0980 c3        1 MOL      0.392990
     84 C28         4.5590    5.2020    1.9050 c3        1 MOL     -0.488378
     85 O15         4.5830    3.4080    0.2380 oh        1 MOL     -0.663235
     86 H35         2.0220    5.7310    2.0250 hn        1 MOL      0.275237
     87 H36         3.1350    5.2470   -0.5680 h1        1 MOL      0.065985
     88 H37         3.2780    3.4580    1.8330 h1        1 MOL      0.055784
     89 H38         5.3730    3.9540    0.1550 ho        1 MOL      0.414965
     90 H39         5.3750    4.6170    2.3310 hc        1 MOL      0.134687
     91 H40         4.8280    6.1230    1.3880 hc        1 MOL      0.134687
     92 H41         4.0070    5.5870    2.7570 hc        1 MOL      0.134687
     93 N9          2.0220    3.3780   -1.7640 n         1 MOL     -0.577272
     94 C29         1.1510    2.5250   -2.5920 c3        1 MOL      0.123301
     95 C30         1.2860    1.0790   -2.1270 c         1 MOL      0.360837
     96 O16         0.6930    0.5700   -1.1560 o         1 MOL     -0.473130
     97 C31        -0.3180    2.9700   -2.6800 c3        1 MOL     -0.011325
     98 C32        -0.4940    4.3800   -3.2740 c3        1 MOL      0.300329
     99 C33        -1.2880    2.0430   -3.5400 c3        1 MOL     -0.487522
    100 C34        -1.8640    4.9920   -3.1600 c3        1 MOL     -0.377673
    101 H42         2.7910    3.8730   -2.1970 hn        1 MOL      0.315575
    102 H43         1.5020    2.5730   -3.6240 h1        1 MOL      0.024823
    103 H44        -0.7620    2.9880   -1.6930 hc        1 MOL      0.134616
    104 H45        -0.2250    4.3810   -4.3400 hc        1 MOL     -0.061292
    105 H46         0.1940    5.0780   -2.8080 hc        1 MOL     -0.061292
    106 H47        -1.0420    1.9080   -4.5930 hc        1 MOL      0.133836
    107 H48        -1.0880    1.0680   -3.0840 hc        1 MOL      0.133836
    108 H49        -2.3310    2.3560   -3.4550 hc        1 MOL      0.133836
    109 H50        -1.7170    5.9630   -3.6490 hc        1 MOL      0.082800
    110 H51        -2.5560    4.3790   -3.7320 hc        1 MOL      0.082800
    111 H52        -2.1400    5.0820   -2.1120 hc        1 MOL      0.082800
    112 N10         2.1860    0.4350   -2.8050 n         1 MOL     -0.297012
    113 C35         2.6380   -0.9590   -2.5440 c3        1 MOL     -0.048770
    114 C36         4.1830   -1.2770   -2.6250 c         1 MOL      0.489308
    115 O17         4.5710   -2.4610   -2.6290 o         1 MOL     -0.525205
    116 C37         1.8510   -1.9580   -3.5600 c3        1 MOL      0.440334
    117 C38         2.0890   -1.4840   -5.0570 c3        1 MOL     -0.292609
    118 O18         0.4930   -1.9590   -3.3180 oh        1 MOL     -0.621015
    119 H53         2.7020    0.9500   -3.4980 hn        1 MOL      0.266536
    120 H54         2.3150   -1.2450   -1.5450 h1        1 MOL      0.051767
    121 H55         2.2220   -2.9630   -3.3360 h1        1 MOL     -0.017799
    122 H56         0.2270   -2.2130   -2.4290 ho        1 MOL      0.393114
    123 H57         1.7780   -2.2410   -5.7690 hc        1 MOL      0.062296
    124 H58         1.4610   -0.6140   -5.2430 hc        1 MOL      0.062296
    125 H59         3.1210   -1.1650   -5.2170 hc        1 MOL      0.062296
    126 N11         5.0100   -0.2180   -2.8450 n         1 MOL     -0.412160
    127 C39         6.4640   -0.3080   -2.8210 c3        1 MOL      0.244668
    128 C40         6.9720   -0.5690   -1.3730 c         1 MOL      0.111578
    129 O19         7.0700    0.4160   -0.5770 o         1 MOL     -0.444675
    130 C41         7.0900    1.0010   -3.3790 c3        1 MOL      0.347403
    131 C42         8.6490    0.9130   -3.4550 c3        1 MOL     -0.311254
    132 O20         6.7040    1.2420   -4.7380 oh        1 MOL     -0.683969
    133 H60         4.6600    0.6790   -3.1340 hn        1 MOL      0.235144
    134 H61         6.7940   -1.2040   -3.3370 h1        1 MOL      0.024383
    135 H62         6.7640    1.8430   -2.7590 h1        1 MOL      0.012560
    136 H63         6.9430    2.1040   -5.0970 ho        1 MOL      0.421880
    137 H64         9.0050   -0.0440   -3.8590 hc        1 MOL      0.075906
    138 H65         8.9020    1.7270   -4.1360 hc        1 MOL      0.075906
    139 H66         9.1530    1.1570   -2.5180 hc        1 MOL      0.075906
    140 N12         7.2100   -1.8310   -1.0900 n         1 MOL     -0.176309
    141 C43         6.8200   -2.4730    0.2150 c3        1 MOL     -0.013867
    142 C44         5.4060   -2.1330    0.7990 c         1 MOL      0.546174
    143 O21         4.8830   -1.0710    0.5400 o         1 MOL     -0.431826
    144 C45         7.9280   -2.2800    1.2010 c3        1 MOL     -0.236811
    145 C46         9.3080   -2.8690    0.8220 c3        1 MOL      0.149381
    146 C47        10.2590   -2.0800   -0.0760 c3        1 MOL      0.169516
    147 C48        11.5010   -2.8370   -0.4510 c3        1 MOL     -0.103941
    148 N13        12.4490   -3.0760    0.6970 n4        1 MOL     -0.107221
    149 H67         7.1860   -2.4670   -1.8730 hn        1 MOL      0.235272
    150 H68         6.7710   -3.5510    0.0250 h1        1 MOL      0.061084
    151 H69         7.6050   -2.9010    2.0370 hc        1 MOL      0.091061
    152 H70         7.9450   -1.2850    1.6400 hc        1 MOL      0.091061
    153 H71         9.1420   -3.8700    0.4250 hc        1 MOL     -0.042212
    154 H72         9.7800   -2.9540    1.7980 hc        1 MOL     -0.042212
    155 H73        10.5470   -1.1630    0.4410 hc        1 MOL     -0.008485
    156 H74         9.7630   -1.8860   -1.0310 hc        1 MOL     -0.008485
    157 H75        12.0550   -2.1870   -1.1200 hx        1 MOL      0.086450
    158 H76        11.2290   -3.8100   -0.8730 hx        1 MOL      0.086450
    159 H77        12.1540   -3.8030    1.3310 hn        1 MOL      0.187552
    160 H78        13.4000   -3.2160    0.4130 hn        1 MOL      0.187552
    161 H79        12.4550   -2.3060    1.3470 hn        1 MOL      0.187552
    162 N14         4.8090   -3.0920    1.5670 n         1 MOL     -0.494336
    163 C49         3.5620   -2.8020    2.2880 c3        1 MOL      0.185982
    164 C50         2.3110   -2.4880    1.4780 c         1 MOL      0.475666
    165 O22         1.7260   -1.4450    1.5890 o         1 MOL     -0.620274
    166 C51         3.3320   -3.8940    3.3730 c3        1 MOL      0.183156
    167 C52         4.0920   -3.4110    4.6630 c3        1 MOL     -0.299436
    168 C53         3.9250   -4.3990    5.7620 c         1 MOL      0.648603
    169 O23         4.5600   -5.4450    5.7040 o         1 MOL     -0.629991
    170 O24         2.9070   -4.2910    6.5700 o         1 MOL     -0.629991
    171 H80         5.4030   -3.8630    1.8370 hn        1 MOL      0.288379
    172 H81         3.8110   -1.8280    2.7250 h1        1 MOL     -0.021037
    173 H82         3.7450   -4.8470    3.0190 hc        1 MOL      0.019493
    174 H83         2.2690   -4.0530    3.5120 hc        1 MOL      0.019493
    175 H84         3.5950   -2.5040    5.0200 hc        1 MOL      0.042844
    176 H85         5.1430   -3.1880    4.5010 hc        1 MOL      0.042844
    177 N15         1.8410   -3.4090    0.6030 n         1 MOL     -0.434513
    178 C54         2.3130   -4.8100    0.3080 c3        1 MOL      0.050476
    179 H86         2.1790   -5.4320    1.1930 h1        1 MOL      0.021256
    180 H87         1.7330   -5.2230   -0.5170 h1        1 MOL      0.021256
    181 H88         3.3680   -4.7880    0.0360 h1        1 MOL      0.021256
    182 H89         1.1530   -3.0440   -0.0450 hn        1 MOL      0.414222
    183 Ca1         0.2390    0.7970    1.3740 Ca        1 MOL      1.832877
    184 O25        -1.5030   -0.0080    3.3050 oh        1 MOL     -0.863324
    185 H90        -2.2140   -0.4660    3.7610 ho        1 MOL      0.419621
    186 H91        -1.6810    0.9210    3.4610 ho        1 MOL      0.419621
    187 O26         2.8370    1.0870    0.7990 oh        1 MOL     -0.863324
    188 H92         3.3790    0.3080    0.7870 ho        1 MOL      0.419621
    189 H93         3.2870    1.7000    0.2210 ho        1 MOL      0.419621
    190 O27         1.8240    0.6890    3.6950 oh        1 MOL     -0.863324
    191 H94         1.9840   -0.1500    4.1160 ho        1 MOL      0.419621
    192 H95         2.7010    1.0090    3.4610 ho        1 MOL      0.419621
@<TRIPOS>BOND
     1    1    2 1   
     2    1    4 1   
     3    1    5 1   
     4    1    6 1   
     5    2    3 2   
     6    2    7 1   
     7    7    8 1   
     8    7   15 1   
     9    8    9 1   
    10    8   11 1   
    11    8   16 1   
    12    9   10 2   
    13    9   19 1   
    14   11   12 1   
    15   11   17 1   
    16   11   18 1   
    17   12   13 1   
    18   12   14 1   
    19   19   20 1   
    20   19   28 1   
    21   20   21 1   
    22   20   23 1   
    23   20   29 1   
    24   21   22 2   
    25   21   41 1   
    26   23   24 1   
    27   23   30 1   
    28   23   31 1   
    29   24   25 1   
    30   24   32 1   
    31   24   33 1   
    32   25   26 1   
    33   25   34 1   
    34   25   35 1   
    35   26   27 1   
    36   26   36 1   
    37   26   37 1   
    38   27   38 1   
    39   27   39 1   
    40   27   40 1   
    41   41   42 1   
    42   41   49 1   
    43   42   43 1   
    44   42   45 1   
    45   42   50 1   
    46   43   44 2   
    47   43   53 1   
    48   45   46 1   
    49   45   51 1   
    50   45   52 1   
    51   46   47 1   
    52   46   48 1   
    53   53   54 1   
    54   53   57 1   
    55   54   55 1   
    56   54   58 1   
    57   54   59 1   
    58   55   56 2   
    59   55   60 1   
    60   60   61 1   
    61   60   68 1   
    62   61   62 1   
    63   61   64 1   
    64   61   69 1   
    65   62   63 2   
    66   62   72 1   
    67   64   65 1   
    68   64   70 1   
    69   64   71 1   
    70   65   66 1   
    71   65   67 1   
    72   72   73 1   
    73   72   76 1   
    74   73   74 1   
    75   73   77 1   
    76   73   78 1   
    77   74   75 2   
    78   74   79 1   
    79   79   80 1   
    80   79   86 1   
    81   80   81 1   
    82   80   83 1   
    83   80   87 1   
    84   81   82 2   
    85   81   93 1   
    86   83   84 1   
    87   83   85 1   
    88   83   88 1   
    89   84   90 1   
    90   84   91 1   
    91   84   92 1   
    92   85   89 1   
    93   93   94 1   
    94   93  101 1   
    95   94   95 1   
    96   94   97 1   
    97   94  102 1   
    98   95   96 2   
    99   95  112 1   
   100   97   98 1   
   101   97   99 1   
   102   97  103 1   
   103   98  100 1   
   104   98  104 1   
   105   98  105 1   
   106   99  106 1   
   107   99  107 1   
   108   99  108 1   
   109  100  109 1   
   110  100  110 1   
   111  100  111 1   
   112  112  113 1   
   113  112  119 1   
   114  113  114 1   
   115  113  116 1   
   116  113  120 1   
   117  114  115 2   
   118  114  126 1   
   119  116  117 1   
   120  116  118 1   
   121  116  121 1   
   122  117  123 1   
   123  117  124 1   
   124  117  125 1   
   125  118  122 1   
   126  126  127 1   
   127  126  133 1   
   128  127  128 1   
   129  127  130 1   
   130  127  134 1   
   131  128  129 2   
   132  128  140 1   
   133  130  131 1   
   134  130  132 1   
   135  130  135 1   
   136  131  137 1   
   137  131  138 1   
   138  131  139 1   
   139  132  136 1   
   140  140  141 1   
   141  140  149 1   
   142  141  142 1   
   143  141  144 1   
   144  141  150 1   
   145  142  143 2   
   146  142  162 1   
   147  144  145 1   
   148  144  151 1   
   149  144  152 1   
   150  145  146 1   
   151  145  153 1   
   152  145  154 1   
   153  146  147 1   
   154  146  155 1   
   155  146  156 1   
   156  147  148 1   
   157  147  157 1   
   158  147  158 1   
   159  148  159 1   
   160  148  160 1   
   161  148  161 1   
   162  162  163 1   
   163  162  171 1   
   164  163  164 1   
   165  163  166 1   
   166  163  172 1   
   167  164  165 2   
   168  164  177 1   
   169  166  167 1   
   170  166  173 1   
   171  166  174 1   
   172  167  168 1   
   173  167  175 1   
   174  167  176 1   
   175  168  169 1   
   176  168  170 1   
   177  177  178 1   
   178  177  182 1   
   179  178  179 1   
   180  178  180 1   
   181  178  181 1   
   182  184  185 1   
   183  184  186 1   
   184  187  188 1   
   185  187  189 1   
   186  190  191 1   
   187  190  192 1   
@<TRIPOS>SUBSTRUCTURE
     1 MOL         1 TEMP              0 ****  ****    0 ROOT
