@<TRIPOS>MOLECULE
MOL
  182   178     1     0     0
SMALL
resp


@<TRIPOS>ATOM
      1 C1         -6.9650   -2.0820    1.3700 c3        1 MOL     -0.463348
      2 C2         -7.6280   -1.4510    0.1840 c         1 MOL      0.813815
      3 O1         -6.9450   -1.1770   -0.7690 o         1 MOL     -0.591320
      4 H1         -7.6240   -2.8390    1.7930 hc        1 MOL      0.118896
      5 H2         -6.0290   -2.5470    1.0600 hc        1 MOL      0.118896
      6 H3         -6.7600   -1.3180    2.1220 hc        1 MOL      0.118896
      7 N1         -8.9140   -1.1130    0.2370 n         1 MOL     -0.577923
      8 C3         -9.6760   -0.2480   -0.7020 c3        1 MOL      0.042819
      9 C4         -8.9300    1.0060   -1.1720 c         1 MOL      0.489397
     10 O2         -9.4530    1.7020   -2.1220 o         1 MOL     -0.548823
     11 C5        -10.2470   -1.1580   -1.8350 c3        1 MOL     -0.259601
     12 C6        -11.2710   -2.2590   -1.5090 c         1 MOL      0.719070
     13 O3        -11.5570   -3.1140   -2.3740 o         1 MOL     -0.652949
     14 O4        -11.7910   -2.3770   -0.3550 o         1 MOL     -0.652949
     15 H4         -9.3880   -1.4350    1.0830 hn        1 MOL      0.281372
     16 H5        -10.5690    0.1640   -0.2260 h1        1 MOL      0.088579
     17 H6         -9.4320   -1.6990   -2.3050 hc        1 MOL      0.090460
     18 H7        -10.7360   -0.5830   -2.6230 hc        1 MOL      0.090460
     19 N2         -7.9240    1.5000   -0.4380 n         1 MOL     -0.235935
     20 C7         -7.2960    2.8160   -0.5590 c3        1 MOL     -0.022613
     21 C8         -5.7590    2.8160   -0.6320 c         1 MOL      0.630547
     22 O5         -5.3010    3.8890   -0.9310 o         1 MOL     -0.572761
     23 C9         -7.6850    3.7670    0.6220 c3        1 MOL     -0.109009
     24 C10        -9.1620    4.1550    0.5760 c3        1 MOL     -0.046074
     25 C11        -9.7790    4.5560    1.9250 c3        1 MOL     -0.081643
     26 C12        -9.3200    5.9650    2.4420 c3        1 MOL      0.154527
     27 N3         -9.6730    6.1440    3.8950 n4        1 MOL     -0.400126
     28 H8         -7.6780    0.9480    0.3680 hn        1 MOL      0.175648
     29 H9         -7.6570    3.2800   -1.4740 h1        1 MOL      0.112055
     30 H10        -7.0620    4.6590    0.6520 hc        1 MOL      0.032159
     31 H11        -7.5810    3.2400    1.5690 hc        1 MOL      0.032159
     32 H12        -9.7200    3.2560    0.3100 hc        1 MOL      0.057109
     33 H13        -9.2570    5.0210   -0.0780 hc        1 MOL      0.057109
     34 H14        -9.6250    3.7440    2.6320 hc        1 MOL      0.042032
     35 H15       -10.8150    4.7330    1.6330 hc        1 MOL      0.042032
     36 H16        -9.6960    6.8080    1.8690 hx        1 MOL      0.065475
     37 H17        -8.2390    6.0900    2.4010 hx        1 MOL      0.065475
     38 H18        -9.4630    7.0840    4.2060 hn        1 MOL      0.275376
     39 H19       -10.6620    6.0270    4.0680 hn        1 MOL      0.275376
     40 H20        -9.1270    5.5160    4.4700 hn        1 MOL      0.275376
     41 N4         -5.0650    1.6870   -0.4490 n         1 MOL     -0.441162
     42 C13        -3.6040    1.6330   -0.5330 c3        1 MOL     -0.039846
     43 C14        -3.2120    1.4440   -2.0080 c         1 MOL      0.565655
     44 O6         -3.7840    0.4860   -2.5970 o         1 MOL     -0.472255
     45 C15        -3.0780    0.5210    0.3840 c3        1 MOL      0.173635
     46 C16        -1.5400    0.4710    0.4460 c         1 MOL      0.398001
     47 O7         -0.8210    0.1090   -0.5370 o         1 MOL     -0.654537
     48 O8         -1.0030    0.9160    1.4870 o         1 MOL     -0.654537
     49 H21        -5.5760    0.8180   -0.5010 hn        1 MOL      0.209539
     50 H22        -3.0470    2.5070   -0.1710 h1        1 MOL      0.033193
     51 H23        -3.3910   -0.4770    0.0610 hc        1 MOL      0.002185
     52 H24        -3.5270    0.6660    1.3710 hc        1 MOL      0.002185
     53 N5         -2.2920    2.2650   -2.5290 n         1 MOL     -0.379887
     54 C17        -1.7950    2.1860   -3.9130 c3        1 MOL     -0.188508
     55 C18        -1.1470    0.8600   -4.4260 c         1 MOL      0.462265
     56 O9         -1.1150    0.6280   -5.6400 o         1 MOL     -0.523774
     57 H25        -1.9220    3.0390   -1.9950 hn        1 MOL      0.323098
     58 H26        -1.0350    2.9590   -4.0180 h1        1 MOL      0.124775
     59 H27        -2.6430    2.4660   -4.5420 h1        1 MOL      0.124775
     60 N6         -0.7250    0.0050   -3.5030 n         1 MOL     -0.230833
     61 C19        -0.1490   -1.3010   -3.8150 c3        1 MOL      0.004516
     62 C20        -0.6220   -2.4520   -2.9200 c         1 MOL      0.419529
     63 O10         0.0060   -3.5370   -2.7040 o         1 MOL     -0.538363
     64 C21         1.3910   -1.1540   -3.9090 c3        1 MOL     -0.371645
     65 C22         2.0560   -0.8220   -2.6300 c         1 MOL      0.605159
     66 N7          2.9940   -1.5670   -2.2320 n         1 MOL     -0.615336
     67 O11         1.8360    0.1280   -1.8740 o         1 MOL     -0.604658
     68 H28        -0.7850    0.3640   -2.5640 hn        1 MOL      0.245612
     69 H29        -0.5320   -1.6250   -4.7830 h1        1 MOL      0.132121
     70 H30         1.5950   -0.3390   -4.6040 hc        1 MOL      0.137875
     71 H31         1.9280   -2.0480   -4.2110 hc        1 MOL      0.137875
     72 H32         3.2830   -2.2930   -2.8820 hn        1 MOL      0.315353
     73 H33         3.3980   -1.2990   -1.3500 hn        1 MOL      0.315353
     74 N8         -1.8090   -2.2070   -2.3060 n         1 MOL     -0.139506
     75 C23        -2.4780   -3.2590   -1.4250 c3        1 MOL     -0.262185
     76 C24        -1.5960   -3.7030   -0.2540 c         1 MOL      0.601108
     77 O12        -1.8630   -4.8810    0.1700 o         1 MOL     -0.533842
     78 H34        -2.2750   -1.3350   -2.5420 hn        1 MOL      0.131114
     79 H35        -2.6080   -4.1360   -2.0670 h1        1 MOL      0.154183
     80 H36        -3.3590   -2.8790   -0.9170 h1        1 MOL      0.154183
     81 N9         -0.6810   -2.8240    0.2550 n         1 MOL     -0.466519
     82 C25         0.1090   -3.0400    1.4350 c3        1 MOL      0.226259
     83 C26         1.4780   -2.2810    1.2900 c         1 MOL      0.443566
     84 O13         1.5340   -1.0890    1.0040 o         1 MOL     -0.403144
     85 C27        -0.6250   -2.6090    2.7130 c3        1 MOL     -0.343765
     86 C28        -1.8560   -3.4060    3.0860 ca        1 MOL      0.376724
     87 C29        -1.7060   -4.7840    3.3650 ca        1 MOL     -0.421666
     88 C30        -3.0520   -2.7450    3.4400 ca        1 MOL     -0.421666
     89 C31        -2.7740   -5.5960    3.6970 ca        1 MOL     -0.014916
     90 C32        -4.1530   -3.5420    3.9090 ca        1 MOL     -0.014916
     91 C33        -4.0050   -4.9580    4.0970 ca        1 MOL      0.127725
     92 O14        -5.1310   -5.7080    4.4940 oh        1 MOL     -0.517799
     93 H37        -0.4680   -1.9650   -0.2330 hn        1 MOL      0.284377
     94 H38         0.4120   -4.0870    1.5390 h1        1 MOL     -0.009595
     95 H39        -1.0990   -1.6430    2.5920 hc        1 MOL      0.094444
     96 H40         0.1360   -2.6510    3.4960 hc        1 MOL      0.094444
     97 H41        -0.8020   -5.2060    2.9730 ha        1 MOL      0.189652
     98 H42        -3.0510   -1.6680    3.4500 ha        1 MOL      0.189652
     99 H43        -2.6110   -6.6560    3.7810 ha        1 MOL      0.104815
    100 H44        -5.1060   -3.1320    4.1830 ha        1 MOL      0.104815
    101 H45        -5.0430   -6.6650    4.5470 ho        1 MOL      0.408196
    102 N10         2.5870   -2.9730    1.5440 n         1 MOL     -0.434018
    103 C34         3.9290   -2.3930    1.6870 c3        1 MOL      0.136207
    104 C35         4.7360   -2.3020    0.3810 c         1 MOL      0.180150
    105 O15         4.8820   -1.1260   -0.0410 o         1 MOL     -0.392850
    106 C36         4.7970   -3.0960    2.7820 c3        1 MOL     -0.058582
    107 C37         4.0130   -3.3060    4.1640 c3        1 MOL     -0.189551
    108 C38         6.0910   -2.1990    3.0130 c3        1 MOL     -0.160926
    109 C39         3.5070   -2.0380    4.7660 c3        1 MOL     -0.284883
    110 H46         2.5000   -3.9430    1.8260 hn        1 MOL      0.302473
    111 H47         3.8270   -1.3750    2.0490 h1        1 MOL      0.061673
    112 H48         5.1560   -4.0510    2.3870 hc        1 MOL      0.001514
    113 H49         4.6650   -3.6680    4.9600 hc        1 MOL      0.115712
    114 H50         3.1350   -3.9430    4.0210 hc        1 MOL      0.115712
    115 H51         6.6710   -2.2470    2.0950 hc        1 MOL      0.063967
    116 H52         5.8360   -1.1540    3.2040 hc        1 MOL      0.063967
    117 H53         6.6850   -2.4990    3.8740 hc        1 MOL      0.063967
    118 H54         2.7320   -1.6000    4.1340 hc        1 MOL      0.094445
    119 H55         3.1470   -2.2780    5.7630 hc        1 MOL      0.094445
    120 H56         4.3570   -1.3490    4.8660 hc        1 MOL      0.094445
    121 N11         5.2370   -3.3740   -0.2350 n         1 MOL     -0.329385
    122 C40         5.8550   -3.2630   -1.5720 c3        1 MOL     -0.098361
    123 C41         7.2300   -2.5920   -1.6650 c         1 MOL      0.488035
    124 O16         7.4920   -2.1270   -2.7820 o         1 MOL     -0.466421
    125 C42         5.8100   -4.6020   -2.2520 c3        1 MOL      0.072510
    126 O17         4.4970   -5.0290   -2.4920 oh        1 MOL     -0.589581
    127 H57         5.1850   -4.3030    0.1620 hn        1 MOL      0.384293
    128 H58         5.2350   -2.5510   -2.1220 h1        1 MOL      0.121423
    129 H59         6.2000   -5.3560   -1.5720 h1        1 MOL      0.087253
    130 H60         6.3830   -4.4170   -3.1570 h1        1 MOL      0.087253
    131 H61         4.1780   -4.8090   -3.3710 ho        1 MOL      0.425615
    132 N12         7.9750   -2.4460   -0.5620 n         1 MOL     -0.548193
    133 C43         9.1390   -1.5300   -0.4970 c3        1 MOL      0.317334
    134 C44         8.8400   -0.0500   -0.8870 c         1 MOL      0.396079
    135 O18         9.8030    0.6520   -1.3100 o         1 MOL     -0.510851
    136 C45        10.3180   -2.2440   -1.1450 c3        1 MOL     -0.426221
    137 H62         7.6020   -2.7750    0.3150 hn        1 MOL      0.318526
    138 H63         9.4360   -1.4790    0.5430 h1        1 MOL      0.034221
    139 H64        10.4410   -3.2390   -0.7030 hc        1 MOL      0.127963
    140 H65        10.1840   -2.2690   -2.2260 hc        1 MOL      0.127963
    141 H66        11.1780   -1.6310   -0.8620 hc        1 MOL      0.127963
    142 N13         7.6150    0.3960   -0.8660 n         1 MOL     -0.431528
    143 C46         7.2730    1.7140   -1.2670 c3        1 MOL      0.430974
    144 C47         7.0920    2.6570   -0.0460 c         1 MOL      0.314760
    145 O19         6.9940    2.2290    1.0960 o         1 MOL     -0.536212
    146 C48         6.0350    1.6750   -2.2490 c3        1 MOL     -0.175903
    147 H67         6.8920   -0.2950   -0.7840 hn        1 MOL      0.215066
    148 H68         7.9970    2.2170   -1.9000 h1        1 MOL     -0.029829
    149 H69         6.1720    1.0200   -3.1000 hc        1 MOL      0.044315
    150 H70         5.1320    1.2940   -1.7690 hc        1 MOL      0.044315
    151 H71         5.7930    2.6460   -2.6770 hc        1 MOL      0.044315
    152 N14         6.7950    3.9020   -0.3780 n         1 MOL     -0.360835
    153 C49         6.4040    4.9550    0.5170 c3        1 MOL     -0.133791
    154 C50         7.3850    5.5000    1.6510 c         1 MOL      0.422571
    155 O20         7.5930    6.7350    1.8340 o         1 MOL     -0.530907
    156 C51         4.9450    4.8250    1.0240 c3        1 MOL      0.041289
    157 C52         3.9160    5.0320   -0.1140 c3        1 MOL      0.105199
    158 C53         2.4580    4.6520    0.2770 c         1 MOL      0.491661
    159 O21         1.4810    5.3380   -0.1240 o         1 MOL     -0.654519
    160 O22         2.3550    3.6290    0.9800 o         1 MOL     -0.654519
    161 H72         6.7520    4.1370   -1.3600 hn        1 MOL      0.308414
    162 H73         6.4790    5.8310   -0.1300 h1        1 MOL      0.090931
    163 H74         4.7570    5.6590    1.7000 hc        1 MOL      0.013794
    164 H75         4.8010    3.9380    1.6530 hc        1 MOL      0.013794
    165 H76         4.2430    4.5030   -1.0200 hc        1 MOL     -0.033229
    166 H77         3.9140    6.0740   -0.4390 hc        1 MOL     -0.033229
    167 N15         7.8530    4.5620    2.4280 n         1 MOL     -0.206979
    168 C54         8.6280    4.6920    3.6800 c3        1 MOL     -0.234420
    169 H78         8.2040    4.0340    4.4400 h1        1 MOL      0.106338
    170 H79         9.6650    4.4140    3.4970 h1        1 MOL      0.106338
    171 H80         8.5850    5.7240    4.0300 h1        1 MOL      0.106338
    172 H81         7.6120    3.6210    2.1590 hn        1 MOL      0.291778
    173 Ca1         1.2720    1.4020    0.3360 Ca        1 MOL      1.721558
    174 O23         3.8420    1.1170    0.8040 oh        1 MOL     -0.898026
    175 H82         4.4110    0.3990    0.5360 ho        1 MOL      0.429635
    176 H83         4.0650    1.2640    1.7190 ho        1 MOL      0.429635
    177 O24         1.1530    2.8160   -2.0960 oh        1 MOL     -0.898026
    178 H84         1.0300    3.7160   -2.3740 ho        1 MOL      0.429635
    179 H85         1.7140    2.4320   -2.7730 ho        1 MOL      0.429635
    180 O25         1.6950    1.4980    3.1670 oh        1 MOL     -0.898026
    181 H86         2.3810    1.1060    3.7170 ho        1 MOL      0.429635
    182 H87         1.5330    2.3570    3.5620 ho        1 MOL      0.429635
@<TRIPOS>BOND
     1    1    2 1   
     2    1    4 1   
     3    1    5 1   
     4    1    6 1   
     5    2    3 2   
     6    2    7 1   
     7    7    8 1   
     8    7   15 1   
     9    8    9 1   
    10    8   11 1   
    11    8   16 1   
    12    9   10 2   
    13    9   19 1   
    14   11   12 1   
    15   11   17 1   
    16   11   18 1   
    17   12   13 1   
    18   12   14 1   
    19   19   20 1   
    20   19   28 1   
    21   20   21 1   
    22   20   23 1   
    23   20   29 1   
    24   21   22 2   
    25   21   41 1   
    26   23   24 1   
    27   23   30 1   
    28   23   31 1   
    29   24   25 1   
    30   24   32 1   
    31   24   33 1   
    32   25   26 1   
    33   25   34 1   
    34   25   35 1   
    35   26   27 1   
    36   26   36 1   
    37   26   37 1   
    38   27   38 1   
    39   27   39 1   
    40   27   40 1   
    41   41   42 1   
    42   41   49 1   
    43   42   43 1   
    44   42   45 1   
    45   42   50 1   
    46   43   44 2   
    47   43   53 1   
    48   45   46 1   
    49   45   51 1   
    50   45   52 1   
    51   46   47 1   
    52   46   48 1   
    53   53   54 1   
    54   53   57 1   
    55   54   55 1   
    56   54   58 1   
    57   54   59 1   
    58   55   56 2   
    59   55   60 1   
    60   60   61 1   
    61   60   68 1   
    62   61   62 1   
    63   61   64 1   
    64   61   69 1   
    65   62   63 2   
    66   62   74 1   
    67   64   65 1   
    68   64   70 1   
    69   64   71 1   
    70   65   66 1   
    71   65   67 2   
    72   66   72 1   
    73   66   73 1   
    74   74   75 1   
    75   74   78 1   
    76   75   76 1   
    77   75   79 1   
    78   75   80 1   
    79   76   77 2   
    80   76   81 1   
    81   81   82 1   
    82   81   93 1   
    83   82   83 1   
    84   82   85 1   
    85   82   94 1   
    86   83   84 2   
    87   83  102 1   
    88   85   86 1   
    89   85   95 1   
    90   85   96 1   
    91   86   87 ar  
    92   86   88 ar  
    93   87   89 ar  
    94   87   97 1   
    95   88   90 ar  
    96   88   98 1   
    97   89   91 ar  
    98   89   99 1   
    99   90   91 ar  
   100   90  100 1   
   101   91   92 1   
   102   92  101 1   
   103  102  103 1   
   104  102  110 1   
   105  103  104 1   
   106  103  106 1   
   107  103  111 1   
   108  104  105 2   
   109  104  121 1   
   110  106  107 1   
   111  106  108 1   
   112  106  112 1   
   113  107  109 1   
   114  107  113 1   
   115  107  114 1   
   116  108  115 1   
   117  108  116 1   
   118  108  117 1   
   119  109  118 1   
   120  109  119 1   
   121  109  120 1   
   122  121  122 1   
   123  121  127 1   
   124  122  123 1   
   125  122  125 1   
   126  122  128 1   
   127  123  124 2   
   128  123  132 1   
   129  125  126 1   
   130  125  129 1   
   131  125  130 1   
   132  126  131 1   
   133  132  133 1   
   134  132  137 1   
   135  133  134 1   
   136  133  136 1   
   137  133  138 1   
   138  134  135 2   
   139  134  142 1   
   140  136  139 1   
   141  136  140 1   
   142  136  141 1   
   143  142  143 1   
   144  142  147 1   
   145  143  144 1   
   146  143  146 1   
   147  143  148 1   
   148  144  145 2   
   149  144  152 1   
   150  146  149 1   
   151  146  150 1   
   152  146  151 1   
   153  152  153 1   
   154  152  161 1   
   155  153  154 1   
   156  153  156 1   
   157  153  162 1   
   158  154  155 2   
   159  154  167 1   
   160  156  157 1   
   161  156  163 1   
   162  156  164 1   
   163  157  158 1   
   164  157  165 1   
   165  157  166 1   
   166  158  159 1   
   167  158  160 1   
   168  167  168 1   
   169  167  172 1   
   170  168  169 1   
   171  168  170 1   
   172  168  171 1   
   173  174  175 1   
   174  174  176 1   
   175  177  178 1   
   176  177  179 1   
   177  180  181 1   
   178  180  182 1   
@<TRIPOS>SUBSTRUCTURE
     1 MOL         1 TEMP              0 ****  ****    0 ROOT
