@<TRIPOS>MOLECULE
MOL
  192   187     1     0     0
SMALL
resp


@<TRIPOS>ATOM
      1 C1          9.4350    1.2510    1.9260 c3        1 MOL     -0.601595
      2 C2          8.2100    0.8030    1.0940 c         1 MOL      0.726148
      3 O1          7.0810    0.5030    1.6000 o         1 MOL     -0.690095
      4 H1         10.2830    1.4190    1.2620 hc        1 MOL      0.160734
      5 H2          9.1980    2.1740    2.4540 hc        1 MOL      0.160734
      6 H3          9.6870    0.4740    2.6480 hc        1 MOL      0.160734
      7 N1          8.5160    0.4990   -0.1760 n         1 MOL     -0.467690
      8 C3          7.5050    0.1570   -1.2400 c3        1 MOL      0.073444
      9 C4          7.1040   -1.3760   -1.3170 c         1 MOL      0.416531
     10 O2          7.2820   -2.0960   -2.3280 o         1 MOL     -0.420477
     11 C5          7.8430    0.8560   -2.5740 c3        1 MOL     -0.234939
     12 C6          9.0620    0.3500   -3.2900 c         1 MOL      0.699300
     13 O3         10.2120    0.4980   -2.8350 o         1 MOL     -0.618844
     14 O4          8.9430   -0.3370   -4.3250 o         1 MOL     -0.618844
     15 H4          9.4790    0.6580   -0.4740 hn        1 MOL      0.225541
     16 H5          6.5850    0.6060   -0.8670 h1        1 MOL      0.068800
     17 H6          7.9440    1.9440   -2.5360 hc        1 MOL      0.082683
     18 H7          6.9770    0.7440   -3.2200 hc        1 MOL      0.082683
     19 N2          6.5990   -1.8710   -0.2060 n         1 MOL     -0.296306
     20 C7          6.1970   -3.3030    0.0370 c3        1 MOL      0.190241
     21 C8          4.7970   -3.6840   -0.3400 c         1 MOL      0.381651
     22 O5          4.5140   -4.7040   -1.0160 o         1 MOL     -0.536082
     23 C9          6.5540   -3.7170    1.4730 c3        1 MOL     -0.195638
     24 C10         8.0740   -3.7390    1.6500 c3        1 MOL      0.293884
     25 C11         8.4170   -4.0850    3.0620 c3        1 MOL     -0.099659
     26 C12         9.9030   -4.0440    3.2270 c3        1 MOL      0.013410
     27 N3         10.2120   -3.9970    4.6510 n4        1 MOL     -0.135570
     28 H8          6.7300   -1.2780    0.5950 hn        1 MOL      0.300715
     29 H9          6.8500   -3.8310   -0.6580 h1        1 MOL      0.027729
     30 H10         6.1100   -4.6840    1.6920 hc        1 MOL      0.030452
     31 H11         6.1080   -2.9300    2.0750 hc        1 MOL      0.030452
     32 H12         8.3710   -2.7090    1.4570 hc        1 MOL     -0.055549
     33 H13         8.6110   -4.3860    0.9510 hc        1 MOL     -0.055549
     34 H14         8.0850   -5.1110    3.2620 hc        1 MOL      0.036509
     35 H15         7.8430   -3.4300    3.7170 hc        1 MOL      0.036509
     36 H16        10.2840   -3.1800    2.6850 hx        1 MOL      0.081089
     37 H17        10.3320   -4.9730    2.8530 hx        1 MOL      0.081089
     38 H18        11.1980   -3.8860    4.8530 hn        1 MOL      0.211556
     39 H19         9.7470   -3.2250    5.1130 hn        1 MOL      0.211556
     40 H20         9.8920   -4.8290    5.1120 hn        1 MOL      0.211556
     41 N4          3.7730   -2.9350   -0.0700 n         1 MOL     -0.226140
     42 C13         3.6910   -1.6840    0.7550 c3        1 MOL      0.010048
     43 C14         3.7840   -0.3180   -0.0380 c         1 MOL      0.042627
     44 O6          3.7810   -0.2450   -1.2660 o         1 MOL     -0.366253
     45 C15         2.5690   -1.7310    1.7370 c3        1 MOL     -0.242150
     46 C16         1.2450   -2.1110    1.0750 c         1 MOL      0.709157
     47 O7          1.0550   -1.5990   -0.0480 o         1 MOL     -0.684219
     48 O8          0.4250   -2.7800    1.7250 o         1 MOL     -0.684219
     49 H21         2.8400   -3.2600   -0.2770 hn        1 MOL      0.303430
     50 H22         4.6010   -1.7380    1.3600 h1        1 MOL      0.071559
     51 H23         2.4790   -0.8210    2.3300 hc        1 MOL      0.047464
     52 H24         2.8100   -2.5110    2.4570 hc        1 MOL      0.047464
     53 N5          3.9070    0.7810    0.6710 n         1 MOL     -0.013013
     54 C17         3.9170    2.1260    0.1510 c3        1 MOL     -0.201871
     55 C18         2.7480    2.6370   -0.6450 c         1 MOL      0.673966
     56 O9          1.7160    1.9980   -0.6570 o         1 MOL     -0.556258
     57 H25         3.7740    0.6210    1.6600 hn        1 MOL      0.224197
     58 H26         4.7910    2.2650   -0.4860 h1        1 MOL      0.074731
     59 H27         3.9800    2.7900    1.0120 h1        1 MOL      0.074731
     60 N6          2.8750    3.7950   -1.3390 n         1 MOL     -0.532481
     61 C19         1.8100    4.5140   -2.1000 c3        1 MOL      0.155679
     62 C20         2.0950    6.0150   -2.1150 c         1 MOL      0.463148
     63 O10         3.2350    6.3640   -2.0800 o         1 MOL     -0.507209
     64 C21         1.7040    4.0040   -3.5160 c3        1 MOL     -0.232210
     65 C22         1.0980    2.6170   -3.6810 c         1 MOL      0.623170
     66 O11         1.7820    1.8130   -4.3490 o         1 MOL     -0.661499
     67 O12         0.0050    2.2580   -3.1160 o         1 MOL     -0.661499
     68 H28         3.8170    4.1500   -1.3320 hn        1 MOL      0.303246
     69 H29         0.8470    4.3700   -1.6050 h1        1 MOL      0.124277
     70 H30         2.6580    4.0810   -4.0450 hc        1 MOL      0.083084
     71 H31         1.0810    4.6550   -4.1410 hc        1 MOL      0.083084
     72 N7          1.0710    6.9210   -2.1640 n         1 MOL     -0.464451
     73 C23        -0.3360    6.6940   -2.2110 c3        1 MOL      0.018855
     74 C24        -0.8480    6.2000   -0.8860 c         1 MOL      0.677778
     75 O13        -0.3130    6.4020    0.1770 o         1 MOL     -0.541966
     76 H32         1.3240    7.8930   -2.1450 hn        1 MOL      0.309046
     77 H33        -0.6310    6.0270   -3.0180 h1        1 MOL      0.048326
     78 H34        -0.7930    7.6400   -2.4840 h1        1 MOL      0.048326
     79 N8         -1.9290    5.4660   -1.0540 n         1 MOL     -0.911159
     80 C25        -2.5540    4.8690    0.1000 c3        1 MOL      0.419146
     81 C26        -1.8090    3.5990    0.5150 c         1 MOL      0.699902
     82 O14        -1.1560    2.9390   -0.3220 o         1 MOL     -0.744788
     83 C27        -3.9870    4.4440   -0.1740 c3        1 MOL      0.387174
     84 C28        -4.8900    5.6010   -0.5630 c3        1 MOL     -0.273879
     85 O15        -4.5570    3.8240    0.9410 oh        1 MOL     -0.731456
     86 H35        -2.4450    5.5170   -1.9140 hn        1 MOL      0.392119
     87 H36        -2.6050    5.5350    0.9640 h1        1 MOL     -0.005739
     88 H37        -4.0140    3.6800   -0.9500 h1        1 MOL     -0.064043
     89 H38        -5.4800    3.6410    0.7370 ho        1 MOL      0.406598
     90 H39        -4.6800    6.3980    0.1520 hc        1 MOL      0.069197
     91 H40        -4.7050    5.8970   -1.5960 hc        1 MOL      0.069197
     92 H41        -5.9660    5.4400   -0.5000 hc        1 MOL      0.069197
     93 N9         -1.6680    3.5290    1.8430 n         1 MOL     -0.449041
     94 C29        -1.0280    2.5660    2.7230 c3        1 MOL     -0.078676
     95 C30        -1.4540    1.0640    2.5040 c         1 MOL      0.429287
     96 O16        -1.3460    0.5320    1.3980 o         1 MOL     -0.481286
     97 C31         0.5020    2.6880    2.7120 c3        1 MOL      0.466201
     98 C32         1.1510    4.1020    2.8420 c3        1 MOL     -0.253701
     99 C33         1.1730    1.6920    3.7100 c3        1 MOL     -0.483199
    100 C34         0.6920    4.7590    4.1940 c3        1 MOL     -0.102606
    101 H42        -2.2050    4.2650    2.2650 hn        1 MOL      0.247736
    102 H43        -1.3000    2.8290    3.7510 h1        1 MOL      0.077134
    103 H44         0.7100    2.3900    1.6830 hc        1 MOL     -0.120766
    104 H45         0.8960    4.7540    2.0100 hc        1 MOL      0.099159
    105 H46         2.2370    4.0250    2.7740 hc        1 MOL      0.099159
    106 H47         2.2510    1.8760    3.6660 hc        1 MOL      0.111772
    107 H48         0.7580    1.9610    4.6920 hc        1 MOL      0.111772
    108 H49         0.9470    0.6470    3.4940 hc        1 MOL      0.111772
    109 H50        -0.3830    4.6450    4.2950 hc        1 MOL      0.027536
    110 H51         1.0290    4.2520    5.0920 hc        1 MOL      0.027536
    111 H52         1.0490    5.7860    4.3240 hc        1 MOL      0.027536
    112 N10        -2.0100    0.4680    3.6030 n         1 MOL     -0.375292
    113 C35        -2.3460   -0.9890    3.5360 c3        1 MOL      0.046768
    114 C36        -3.7930   -1.2400    2.9500 c         1 MOL      0.383026
    115 O17        -4.3040   -2.3770    2.9270 o         1 MOL     -0.515845
    116 C37        -2.1000   -1.6490    4.9530 c3        1 MOL      0.332760
    117 C38        -3.2340   -1.3110    5.9900 c3        1 MOL     -0.287526
    118 O18        -0.8810   -1.1540    5.5740 oh        1 MOL     -0.582763
    119 H53        -2.2060    0.9400    4.4760 hn        1 MOL      0.267867
    120 H54        -1.6860   -1.4450    2.8060 h1        1 MOL      0.041596
    121 H55        -2.0710   -2.7260    4.7780 h1        1 MOL      0.033264
    122 H56        -0.1990   -1.5840    5.0590 ho        1 MOL      0.369897
    123 H57        -3.5890   -0.2820    5.9690 hc        1 MOL      0.079879
    124 H58        -4.0730   -1.9940    5.8470 hc        1 MOL      0.079879
    125 H59        -2.8430   -1.4430    7.0050 hc        1 MOL      0.079879
    126 N11        -4.5880   -0.2200    2.6640 n         1 MOL     -0.032810
    127 C39        -6.0150   -0.4230    2.2140 c3        1 MOL     -0.595346
    128 C40        -6.0020   -0.8450    0.7310 c         1 MOL      0.721761
    129 O19        -5.1960   -0.3100   -0.0450 o         1 MOL     -0.534756
    130 C41        -6.7020    0.9780    2.4200 c3        1 MOL      0.334934
    131 C42        -8.1900    1.1130    2.0650 c3        1 MOL     -0.448044
    132 O20        -6.6670    1.1160    3.8410 oh        1 MOL     -0.550632
    133 H60        -4.2250    0.7110    2.8100 hn        1 MOL      0.161149
    134 H61        -6.6060   -1.1450    2.7780 h1        1 MOL      0.235913
    135 H62        -6.0340    1.7510    2.0360 h1        1 MOL      0.065347
    136 H63        -5.7570    1.1940    4.1420 ho        1 MOL      0.342312
    137 H64        -8.5040    2.0690    2.4830 hc        1 MOL      0.140749
    138 H65        -8.3760    0.9820    1.0020 hc        1 MOL      0.140749
    139 H66        -8.7660    0.3820    2.6340 hc        1 MOL      0.140749
    140 N12        -6.8380   -1.8640    0.4600 n         1 MOL     -0.454691
    141 C43        -7.0200   -2.4910   -0.8400 c3        1 MOL      0.148166
    142 C44        -5.6930   -2.7760   -1.6370 c         1 MOL      0.479526
    143 O21        -5.6020   -2.3270   -2.7840 o         1 MOL     -0.553679
    144 C45        -8.0070   -1.6170   -1.6750 c3        1 MOL     -0.370743
    145 C46        -9.2640   -1.5170   -0.8180 c3        1 MOL      0.005119
    146 C47       -10.3560   -0.9010   -1.6900 c3        1 MOL      0.041841
    147 C48       -11.6020   -0.7290   -0.9270 c3        1 MOL      0.058301
    148 N13       -12.2450   -1.8790   -0.4310 n4        1 MOL     -0.074210
    149 H67        -7.4640   -2.1740    1.1820 hn        1 MOL      0.266501
    150 H68        -7.4810   -3.4690   -0.6970 h1        1 MOL      0.054512
    151 H69        -8.1540   -2.1850   -2.5900 hc        1 MOL      0.138468
    152 H70        -7.6900   -0.6050   -1.9150 hc        1 MOL      0.138468
    153 H71        -9.0750   -0.8550    0.0220 hc        1 MOL      0.005715
    154 H72        -9.5650   -2.5180   -0.5190 hc        1 MOL      0.005715
    155 H73       -10.5670   -1.4890   -2.5810 hc        1 MOL      0.040050
    156 H74       -10.0540    0.0630   -2.1070 hc        1 MOL      0.040050
    157 H75       -12.2990   -0.2060   -1.5860 hx        1 MOL      0.019399
    158 H76       -11.3560   -0.1020   -0.0680 hx        1 MOL      0.019399
    159 H77       -11.5920   -2.3810    0.1680 hn        1 MOL      0.155787
    160 H78       -13.0940   -1.6450    0.0700 hn        1 MOL      0.155787
    161 H79       -12.4740   -2.5050   -1.1910 hn        1 MOL      0.155787
    162 N14        -4.6820   -3.3360   -1.0940 n         1 MOL     -0.383779
    163 C49        -3.3160   -3.3470   -1.7290 c3        1 MOL      0.229013
    164 C50        -2.2360   -2.9250   -0.7660 c         1 MOL      0.482573
    165 O22        -1.5500   -1.9240   -0.9670 o         1 MOL     -0.638410
    166 C51        -3.0530   -4.6560   -2.4190 c3        1 MOL      0.122726
    167 C52        -3.6690   -4.9510   -3.7520 c3        1 MOL     -0.356330
    168 C53        -3.1580   -6.2210   -4.4350 c         1 MOL      0.706296
    169 O23        -2.2370   -6.2170   -5.2570 o         1 MOL     -0.610064
    170 O24        -3.6650   -7.3720   -4.0770 o         1 MOL     -0.610064
    171 H80        -4.7270   -3.6300   -0.1350 hn        1 MOL      0.232618
    172 H81        -3.3150   -2.5080   -2.4290 h1        1 MOL      0.033339
    173 H82        -3.4300   -5.4380   -1.7610 hc        1 MOL      0.000147
    174 H83        -1.9800   -4.8640   -2.3570 hc        1 MOL      0.000147
    175 H84        -3.3390   -4.1030   -4.3400 hc        1 MOL      0.069798
    176 H85        -4.7550   -4.9340   -3.6470 hc        1 MOL      0.069798
    177 N15        -1.8600   -3.6070    0.3270 n         1 MOL     -0.372569
    178 C54        -2.0930   -5.0200    0.7740 c3        1 MOL     -0.119991
    179 H86        -1.5220   -5.7000    0.1410 h1        1 MOL      0.065576
    180 H87        -1.7700   -5.1320    1.8090 h1        1 MOL      0.065576
    181 H88        -3.1540   -5.2560    0.6960 h1        1 MOL      0.065576
    182 H89        -0.9980   -3.1960    0.6760 hn        1 MOL      0.395833
    183 Ca1        -0.4050    0.4580   -1.1580 Ca        1 MOL      1.825311
    184 O25         1.5340   -0.3480   -2.6190 oh        1 MOL     -0.854271
    185 H90         1.5200    0.0520   -3.4820 ho        1 MOL      0.413220
    186 H91         2.4310   -0.2050   -2.3070 ho        1 MOL      0.413220
    187 O26        -1.8480   -0.0820   -3.6060 oh        1 MOL     -0.854271
    188 H92        -2.7880    0.1040   -3.6850 ho        1 MOL      0.413220
    189 H93        -1.6500   -0.6010   -4.3830 ho        1 MOL      0.413220
    190 O27        -3.0480    0.8350   -1.0780 oh        1 MOL     -0.854271
    191 H94        -3.8180    0.5090   -0.6130 ho        1 MOL      0.413220
    192 H95        -3.4060    1.4180   -1.7560 ho        1 MOL      0.413220
@<TRIPOS>BOND
     1    1    2 1   
     2    1    4 1   
     3    1    5 1   
     4    1    6 1   
     5    2    3 2   
     6    2    7 1   
     7    7    8 1   
     8    7   15 1   
     9    8    9 1   
    10    8   11 1   
    11    8   16 1   
    12    9   10 2   
    13    9   19 1   
    14   11   12 1   
    15   11   17 1   
    16   11   18 1   
    17   12   13 1   
    18   12   14 1   
    19   19   20 1   
    20   19   28 1   
    21   20   21 1   
    22   20   23 1   
    23   20   29 1   
    24   21   22 2   
    25   21   41 1   
    26   23   24 1   
    27   23   30 1   
    28   23   31 1   
    29   24   25 1   
    30   24   32 1   
    31   24   33 1   
    32   25   26 1   
    33   25   34 1   
    34   25   35 1   
    35   26   27 1   
    36   26   36 1   
    37   26   37 1   
    38   27   38 1   
    39   27   39 1   
    40   27   40 1   
    41   41   42 1   
    42   41   49 1   
    43   42   43 1   
    44   42   45 1   
    45   42   50 1   
    46   43   44 2   
    47   43   53 1   
    48   45   46 1   
    49   45   51 1   
    50   45   52 1   
    51   46   47 1   
    52   46   48 1   
    53   53   54 1   
    54   53   57 1   
    55   54   55 1   
    56   54   58 1   
    57   54   59 1   
    58   55   56 2   
    59   55   60 1   
    60   60   61 1   
    61   60   68 1   
    62   61   62 1   
    63   61   64 1   
    64   61   69 1   
    65   62   63 2   
    66   62   72 1   
    67   64   65 1   
    68   64   70 1   
    69   64   71 1   
    70   65   66 1   
    71   65   67 1   
    72   72   73 1   
    73   72   76 1   
    74   73   74 1   
    75   73   77 1   
    76   73   78 1   
    77   74   75 2   
    78   74   79 1   
    79   79   80 1   
    80   79   86 1   
    81   80   81 1   
    82   80   83 1   
    83   80   87 1   
    84   81   82 2   
    85   81   93 1   
    86   83   84 1   
    87   83   85 1   
    88   83   88 1   
    89   84   90 1   
    90   84   91 1   
    91   84   92 1   
    92   85   89 1   
    93   93   94 1   
    94   93  101 1   
    95   94   95 1   
    96   94   97 1   
    97   94  102 1   
    98   95   96 2   
    99   95  112 1   
   100   97   98 1   
   101   97   99 1   
   102   97  103 1   
   103   98  100 1   
   104   98  104 1   
   105   98  105 1   
   106   99  106 1   
   107   99  107 1   
   108   99  108 1   
   109  100  109 1   
   110  100  110 1   
   111  100  111 1   
   112  112  113 1   
   113  112  119 1   
   114  113  114 1   
   115  113  116 1   
   116  113  120 1   
   117  114  115 2   
   118  114  126 1   
   119  116  117 1   
   120  116  118 1   
   121  116  121 1   
   122  117  123 1   
   123  117  124 1   
   124  117  125 1   
   125  118  122 1   
   126  126  127 1   
   127  126  133 1   
   128  127  128 1   
   129  127  130 1   
   130  127  134 1   
   131  128  129 2   
   132  128  140 1   
   133  130  131 1   
   134  130  132 1   
   135  130  135 1   
   136  131  137 1   
   137  131  138 1   
   138  131  139 1   
   139  132  136 1   
   140  140  141 1   
   141  140  149 1   
   142  141  142 1   
   143  141  144 1   
   144  141  150 1   
   145  142  143 2   
   146  142  162 1   
   147  144  145 1   
   148  144  151 1   
   149  144  152 1   
   150  145  146 1   
   151  145  153 1   
   152  145  154 1   
   153  146  147 1   
   154  146  155 1   
   155  146  156 1   
   156  147  148 1   
   157  147  157 1   
   158  147  158 1   
   159  148  159 1   
   160  148  160 1   
   161  148  161 1   
   162  162  163 1   
   163  162  171 1   
   164  163  164 1   
   165  163  166 1   
   166  163  172 1   
   167  164  165 2   
   168  164  177 1   
   169  166  167 1   
   170  166  173 1   
   171  166  174 1   
   172  167  168 1   
   173  167  175 1   
   174  167  176 1   
   175  168  169 1   
   176  168  170 1   
   177  177  178 1   
   178  177  182 1   
   179  178  179 1   
   180  178  180 1   
   181  178  181 1   
   182  184  185 1   
   183  184  186 1   
   184  187  188 1   
   185  187  189 1   
   186  190  191 1   
   187  190  192 1   
@<TRIPOS>SUBSTRUCTURE
     1 MOL         1 TEMP              0 ****  ****    0 ROOT
