@<TRIPOS>MOLECULE
MOL
  181   177     1     0     0
SMALL
resp


@<TRIPOS>ATOM
      1 C1          4.0830   -2.3600    2.8900 c3        1 MOL     -0.350150
      2 C2          5.4400   -1.5050    2.7950 c         1 MOL      0.556005
      3 O1          5.5430   -0.6020    1.9780 o         1 MOL     -0.527602
      4 H1          3.3290   -1.9180    2.2380 hc        1 MOL      0.106815
      5 H2          4.2770   -3.3860    2.5780 hc        1 MOL      0.106815
      6 H3          3.7220   -2.3550    3.9190 hc        1 MOL      0.106815
      7 N1          6.4990   -1.9710    3.4840 n         1 MOL     -0.485294
      8 C3          7.8860   -1.6230    3.2280 c3        1 MOL      0.187961
      9 C4          8.3410   -1.8490    1.7950 c         1 MOL      0.707411
     10 O2          8.3330   -2.9440    1.2620 o         1 MOL     -0.591508
     11 C5          8.7020   -2.3610    4.2900 c3        1 MOL     -0.338513
     12 C6         10.2330   -1.9630    4.2770 c         1 MOL      0.766518
     13 O3         10.6370   -1.3020    3.2940 o         1 MOL     -0.729255
     14 O4         11.0060   -2.3880    5.1440 o         1 MOL     -0.729255
     15 H4          6.2370   -2.7640    4.0550 hn        1 MOL      0.276946
     16 H5          7.9930   -0.5580    3.4510 h1        1 MOL      0.021963
     17 H6          8.6260   -3.4330    4.1150 hc        1 MOL      0.054184
     18 H7          8.2850   -2.0520    5.2470 hc        1 MOL      0.054184
     19 N2          8.6530   -0.7500    1.0310 n         1 MOL     -0.667630
     20 C7          8.8610   -0.9990   -0.3930 c3        1 MOL      0.421665
     21 C8          7.5550   -1.0420   -1.3250 c         1 MOL      0.305492
     22 O5          7.6230   -1.3240   -2.4970 o         1 MOL     -0.528740
     23 C9          9.9330   -0.0030   -0.9480 c3        1 MOL     -0.494385
     24 H8          8.7890    0.1760    1.4030 hn        1 MOL      0.318758
     25 H9          9.2210   -2.0070   -0.6130 h1        1 MOL      0.064949
     26 H10        10.7720    0.0930   -0.2610 hc        1 MOL      0.116930
     27 H11        10.4290   -0.4050   -1.8260 hc        1 MOL      0.116930
     28 H12         9.5640    1.0240   -0.9560 hc        1 MOL      0.116930
     29 N3          6.3650   -0.9820   -0.7030 n         1 MOL     -0.239880
     30 C10         5.0740   -1.2620   -1.3230 c3        1 MOL      0.133501
     31 C11         4.8570   -0.6210   -2.6560 c         1 MOL      0.649273
     32 O6          4.1610   -1.1590   -3.5230 o         1 MOL     -0.587622
     33 C12         4.8710   -2.7990   -1.3110 c3        1 MOL      0.041492
     34 C13         3.4340   -3.2920   -1.5320 c         1 MOL      0.655535
     35 O7          3.1820   -4.3640   -2.1300 o         1 MOL     -0.754737
     36 O8          2.4580   -2.6500   -1.1020 o         1 MOL     -0.754737
     37 H13         6.2460   -0.6630    0.2500 hn        1 MOL      0.123810
     38 H14         4.3410   -0.9470   -0.5740 h1        1 MOL      0.012126
     39 H15         5.1330   -3.2450   -0.3540 hc        1 MOL     -0.004197
     40 H16         5.5470   -3.3000   -2.0020 hc        1 MOL     -0.004197
     41 N4          5.3620    0.6130   -2.8020 n         1 MOL     -0.433993
     42 C14         5.4150    1.5340   -3.9360 c3        1 MOL     -0.002173
     43 C15         4.2000    2.3990   -4.3500 c         1 MOL      0.411863
     44 O9          4.2660    3.2230   -5.2800 o         1 MOL     -0.548113
     45 H17         5.8590    0.8960   -1.9700 hn        1 MOL      0.233593
     46 H18         5.7360    1.0260   -4.8530 h1        1 MOL      0.080783
     47 H19         6.2510    2.2220   -3.8890 h1        1 MOL      0.080783
     48 N5          3.0550    2.1910   -3.6350 n         1 MOL     -0.212814
     49 C16         1.8310    3.0640   -3.6230 c3        1 MOL     -0.077830
     50 C17         2.1550    4.1550   -2.6190 c         1 MOL      0.507170
     51 O10         2.3390    3.8340   -1.4530 o         1 MOL     -0.521808
     52 C18         0.5230    2.2760   -3.2370 c3        1 MOL     -0.103550
     53 C19        -0.7150    3.1250   -3.2650 c         1 MOL      0.622798
     54 N6         -1.2750    3.4780   -2.1460 n         1 MOL     -0.691747
     55 O11        -1.1710    3.5410   -4.2860 o         1 MOL     -0.607537
     56 H20         3.0860    1.5970   -2.8180 hn        1 MOL      0.182973
     57 H21         1.8110    3.5150   -4.6160 h1        1 MOL      0.089376
     58 H22         0.5520    1.8060   -2.2500 hc        1 MOL      0.080408
     59 H23         0.4530    1.4840   -3.9770 hc        1 MOL      0.080408
     60 H24        -0.9420    3.1210   -1.2630 hn        1 MOL      0.330698
     61 H25        -1.8900    4.2540   -2.3000 hn        1 MOL      0.330698
     62 N7          2.0520    5.4210   -2.9420 n         1 MOL     -0.400368
     63 C20         2.0260    6.5380   -1.9330 c3        1 MOL     -0.005291
     64 C21         0.7080    6.6900   -1.0890 c         1 MOL      0.539751
     65 O12        -0.3780    6.5840   -1.5900 o         1 MOL     -0.480761
     66 H26         1.8090    5.6060   -3.9120 hn        1 MOL      0.293861
     67 H27         2.2730    7.5200   -2.3450 h1        1 MOL      0.049013
     68 H28         2.7810    6.3710   -1.1670 h1        1 MOL      0.049013
     69 N8          0.9240    6.8840    0.2270 n         1 MOL     -0.458065
     70 C22        -0.1360    7.1100    1.2080 c3        1 MOL     -0.223959
     71 C23        -1.1140    6.0340    1.7340 c         1 MOL      0.449484
     72 O13        -2.2660    6.3180    2.0640 o         1 MOL     -0.570308
     73 C24         0.4870    7.8080    2.5310 c3        1 MOL      0.498219
     74 C25         1.3500    7.0270    3.4930 c3        1 MOL     -0.260037
     75 O14         1.0410    9.0130    2.1570 oh        1 MOL     -0.651944
     76 H29         1.8890    6.9050    0.5290 hn        1 MOL      0.283458
     77 H30        -0.8750    7.7310    0.7020 h1        1 MOL      0.152656
     78 H31        -0.4380    8.0180    3.0710 h1        1 MOL      0.003984
     79 H32         1.8540    8.8980    1.6670 ho        1 MOL      0.384610
     80 H33         2.2060    6.6610    2.9320 hc        1 MOL      0.054731
     81 H34         1.7090    7.7210    4.2570 hc        1 MOL      0.054731
     82 H35         0.8190    6.1870    3.9420 hc        1 MOL      0.054731
     83 N9         -0.7450    4.7880    1.6350 n         1 MOL     -0.095565
     84 C26        -1.4810    3.5370    1.9810 c3        1 MOL      0.044175
     85 C27        -1.2560    2.4800    0.8920 c         1 MOL      0.240938
     86 O15        -0.2470    2.4620    0.2560 o         1 MOL     -0.387763
     87 C28        -0.9480    2.9400    3.3140 c3        1 MOL      0.090385
     88 C29         0.5170    2.4480    3.3900 c3        1 MOL      0.060917
     89 C30        -1.2960    3.8280    4.5770 c3        1 MOL     -0.447173
     90 C31         1.6820    3.3320    3.0850 c3        1 MOL     -0.028934
     91 H36         0.1890    4.5980    1.2990 hn        1 MOL      0.181760
     92 H37        -2.5310    3.7890    2.1350 h1        1 MOL      0.066591
     93 H38        -1.5010    2.0430    3.5750 hc        1 MOL     -0.002421
     94 H39         0.6300    1.5620    2.7590 hc        1 MOL      0.019555
     95 H40         0.7050    2.0440    4.3910 hc        1 MOL      0.019555
     96 H41        -0.9920    3.3630    5.5110 hc        1 MOL      0.110676
     97 H42        -0.9150    4.8490    4.4740 hc        1 MOL      0.110676
     98 H43        -2.3880    3.8320    4.6080 hc        1 MOL      0.110676
     99 H44         1.6250    4.2000    3.7280 hc        1 MOL      0.002032
    100 H45         2.6110    2.8160    3.3160 hc        1 MOL      0.002032
    101 H46         1.6840    3.6180    2.0300 hc        1 MOL      0.002032
    102 N10        -2.2410    1.6010    0.7380 n         1 MOL     -0.387533
    103 C32        -2.2730    0.4030   -0.1270 c3        1 MOL     -0.027201
    104 C33        -3.7050   -0.0310   -0.5790 c         1 MOL      0.601529
    105 O16        -3.9500   -1.0720   -1.2930 o         1 MOL     -0.506423
    106 C34        -1.5250   -0.7240    0.6020 c3        1 MOL      0.055253
    107 C35        -1.0510   -1.8620   -0.3050 c         1 MOL      0.772046
    108 O17        -0.7100   -1.7180   -1.5350 o         1 MOL     -0.753460
    109 O18        -0.9820   -2.9450    0.2780 o         1 MOL     -0.753460
    110 H47        -3.0360    1.8070    1.3210 hn        1 MOL      0.264231
    111 H48        -1.8160    0.6310   -1.1000 h1        1 MOL      0.070213
    112 H49        -2.1450   -1.1770    1.3790 hc        1 MOL     -0.004323
    113 H50        -0.6640   -0.3270    1.1340 hc        1 MOL     -0.004323
    114 N11        -4.6200    0.8390   -0.1740 n         1 MOL     -0.469984
    115 C36        -6.0650    0.5670   -0.3520 c3        1 MOL      0.008333
    116 C37        -6.4350   -0.4830    0.6600 c         1 MOL      0.346033
    117 O19        -5.9880   -0.4380    1.8230 o         1 MOL     -0.450689
    118 C38        -6.8480    1.8730   -0.1320 c3        1 MOL     -0.111884
    119 C39        -8.3540    1.8210   -0.3630 ca        1 MOL      0.019543
    120 C40        -8.8500    1.7780   -1.6790 ca        1 MOL     -0.151668
    121 C41        -9.2620    1.7470    0.7260 ca        1 MOL     -0.151668
    122 C42       -10.2580    1.6660   -1.9120 ca        1 MOL     -0.096246
    123 C43       -10.6600    1.6170    0.5010 ca        1 MOL     -0.096246
    124 C44       -11.1440    1.5220   -0.8480 ca        1 MOL     -0.141802
    125 H51        -4.4630    1.6320    0.4250 hn        1 MOL      0.267980
    126 H52        -6.2060    0.4040   -1.4190 h1        1 MOL      0.109300
    127 H53        -6.2900    2.6450   -0.6630 hc        1 MOL      0.082349
    128 H54        -6.8190    2.2870    0.8760 hc        1 MOL      0.082349
    129 H55        -8.1880    1.6940   -2.5230 ha        1 MOL      0.131655
    130 H56        -8.8670    1.6890    1.7350 ha        1 MOL      0.131655
    131 H57       -10.5700    1.5360   -2.9350 ha        1 MOL      0.110627
    132 H58       -11.3890    1.4650    1.2720 ha        1 MOL      0.110627
    133 H59       -12.1760    1.3170   -1.0690 ha        1 MOL      0.114428
    134 N12        -7.2970   -1.4200    0.1770 n         1 MOL     -0.096893
    135 C45        -8.0210   -2.4500    1.0110 c3        1 MOL      0.004984
    136 C46        -7.1420   -3.5300    1.6020 c         1 MOL      0.323102
    137 O20        -7.4840   -3.9900    2.6600 o         1 MOL     -0.510009
    138 C47        -8.9920   -3.1580    0.0230 c3        1 MOL      0.090901
    139 C48        -9.3500   -2.0700   -0.9760 c3        1 MOL     -0.202734
    140 C49        -7.9500   -1.5270   -1.1110 c3        1 MOL     -0.041314
    141 H60        -8.6060   -1.9780    1.7980 h1        1 MOL      0.083418
    142 H61        -8.5970   -3.9920   -0.5580 hc        1 MOL      0.022588
    143 H62        -9.8630   -3.5660    0.5350 hc        1 MOL      0.022588
    144 H63        -9.7940   -2.5730   -1.8320 hc        1 MOL      0.067934
    145 H64        -9.9970   -1.3520   -0.4710 hc        1 MOL      0.067934
    146 H65        -7.4920   -2.1830   -1.8560 h1        1 MOL      0.071890
    147 H66        -7.9490   -0.5650   -1.6200 h1        1 MOL      0.071890
    148 N13        -5.9620   -3.7510    1.0750 n         1 MOL     -0.273200
    149 C50        -4.8840   -4.4300    1.7760 c3        1 MOL     -0.051628
    150 C51        -4.5050   -3.7920    3.1610 c         1 MOL      0.357896
    151 O21        -3.9040   -4.5050    3.9930 o         1 MOL     -0.542042
    152 C52        -3.6280   -4.3860    0.8590 c3        1 MOL      0.053555
    153 C53        -3.7350   -5.2170   -0.4870 c3        1 MOL     -0.253238
    154 C54        -2.4020   -5.3130   -1.3360 c         1 MOL      0.709078
    155 O22        -1.3710   -5.8730   -0.8590 o         1 MOL     -0.731253
    156 O23        -2.3640   -4.6600   -2.4170 o         1 MOL     -0.731253
    157 H67        -5.7240   -3.3220    0.1950 hn        1 MOL      0.220156
    158 H68        -5.1460   -5.4660    1.9720 h1        1 MOL      0.111674
    159 H69        -2.8090   -4.7470    1.4920 hc        1 MOL      0.050085
    160 H70        -3.5490   -3.3260    0.6370 hc        1 MOL      0.050085
    161 H71        -4.5000   -4.7150   -1.0900 hc        1 MOL      0.039263
    162 H72        -4.1080   -6.2140   -0.2870 hc        1 MOL      0.039263
    163 N14        -4.7810   -2.5020    3.4140 n         1 MOL     -0.046360
    164 C55        -4.3780   -1.8610    4.7190 c3        1 MOL     -0.223593
    165 H73        -3.7020   -1.0300    4.5210 h1        1 MOL      0.093106
    166 H74        -5.2660   -1.4930    5.2330 h1        1 MOL      0.093106
    167 H75        -3.8740   -2.5980    5.3450 h1        1 MOL      0.093106
    168 H76        -5.2240   -2.0470    2.6240 hn        1 MOL      0.120655
    169 Ca1         0.4180   -4.1360   -1.7480 Ca        1 MOL      1.728833
    170 O24         0.3480   -5.1060   -4.3010 oh        1 MOL     -0.767663
    171 H77         0.5860   -4.4890   -5.0010 ho        1 MOL      0.378861
    172 H78        -0.1750   -5.7720   -4.7370 ho        1 MOL      0.378861
    173 O25         1.3340   -4.7560    0.6570 oh        1 MOL     -0.767663
    174 H79         1.4980   -5.6850    0.8200 ho        1 MOL      0.378861
    175 H80         0.8880   -4.4430    1.4520 ho        1 MOL      0.378861
    176 O26         1.1160   -6.6550   -1.9340 oh        1 MOL     -0.767663
    177 H81         1.1700   -7.3700   -1.2950 ho        1 MOL      0.378861
    178 H82         1.9620   -6.6470   -2.3700 ho        1 MOL      0.378861
    179 O27         1.3960   -2.4380   -3.9250 oh        1 MOL     -0.767663
    180 H83         1.3300   -2.4630   -4.8780 ho        1 MOL      0.378861
    181 H84         2.2040   -1.9600   -3.7570 ho        1 MOL      0.378861
@<TRIPOS>BOND
     1    1    2 1   
     2    1    4 1   
     3    1    5 1   
     4    1    6 1   
     5    2    3 2   
     6    2    7 1   
     7    7    8 1   
     8    7   15 1   
     9    8    9 1   
    10    8   11 1   
    11    8   16 1   
    12    9   10 2   
    13    9   19 1   
    14   11   12 1   
    15   11   17 1   
    16   11   18 1   
    17   12   13 1   
    18   12   14 1   
    19   19   20 1   
    20   19   24 1   
    21   20   21 1   
    22   20   23 1   
    23   20   25 1   
    24   21   22 2   
    25   21   29 1   
    26   23   26 1   
    27   23   27 1   
    28   23   28 1   
    29   29   30 1   
    30   29   37 1   
    31   30   31 1   
    32   30   33 1   
    33   30   38 1   
    34   31   32 2   
    35   31   41 1   
    36   33   34 1   
    37   33   39 1   
    38   33   40 1   
    39   34   35 1   
    40   34   36 1   
    41   41   42 1   
    42   41   45 1   
    43   42   43 1   
    44   42   46 1   
    45   42   47 1   
    46   43   44 2   
    47   43   48 1   
    48   48   49 1   
    49   48   56 1   
    50   49   50 1   
    51   49   52 1   
    52   49   57 1   
    53   50   51 2   
    54   50   62 1   
    55   52   53 1   
    56   52   58 1   
    57   52   59 1   
    58   53   54 1   
    59   53   55 2   
    60   54   60 1   
    61   54   61 1   
    62   62   63 1   
    63   62   66 1   
    64   63   64 1   
    65   63   67 1   
    66   63   68 1   
    67   64   65 2   
    68   64   69 1   
    69   69   70 1   
    70   69   76 1   
    71   70   71 1   
    72   70   73 1   
    73   70   77 1   
    74   71   72 2   
    75   71   83 1   
    76   73   74 1   
    77   73   75 1   
    78   73   78 1   
    79   74   80 1   
    80   74   81 1   
    81   74   82 1   
    82   75   79 1   
    83   83   84 1   
    84   83   91 1   
    85   84   85 1   
    86   84   87 1   
    87   84   92 1   
    88   85   86 2   
    89   85  102 1   
    90   87   88 1   
    91   87   89 1   
    92   87   93 1   
    93   88   90 1   
    94   88   94 1   
    95   88   95 1   
    96   89   96 1   
    97   89   97 1   
    98   89   98 1   
    99   90   99 1   
   100   90  100 1   
   101   90  101 1   
   102  102  103 1   
   103  102  110 1   
   104  103  104 1   
   105  103  106 1   
   106  103  111 1   
   107  104  105 2   
   108  104  114 1   
   109  106  107 1   
   110  106  112 1   
   111  106  113 1   
   112  107  108 1   
   113  107  109 1   
   114  114  115 1   
   115  114  125 1   
   116  115  116 1   
   117  115  118 1   
   118  115  126 1   
   119  116  117 2   
   120  116  134 1   
   121  118  119 1   
   122  118  127 1   
   123  118  128 1   
   124  119  120 ar  
   125  119  121 ar  
   126  120  122 ar  
   127  120  129 1   
   128  121  123 ar  
   129  121  130 1   
   130  122  124 ar  
   131  122  131 1   
   132  123  124 ar  
   133  123  132 1   
   134  124  133 1   
   135  134  135 1   
   136  134  140 1   
   137  135  136 1   
   138  135  138 1   
   139  135  141 1   
   140  136  137 2   
   141  136  148 1   
   142  138  139 1   
   143  138  142 1   
   144  138  143 1   
   145  139  140 1   
   146  139  144 1   
   147  139  145 1   
   148  140  146 1   
   149  140  147 1   
   150  148  149 1   
   151  148  157 1   
   152  149  150 1   
   153  149  152 1   
   154  149  158 1   
   155  150  151 2   
   156  150  163 1   
   157  152  153 1   
   158  152  159 1   
   159  152  160 1   
   160  153  154 1   
   161  153  161 1   
   162  153  162 1   
   163  154  155 1   
   164  154  156 1   
   165  163  164 1   
   166  163  168 1   
   167  164  165 1   
   168  164  166 1   
   169  164  167 1   
   170  170  171 1   
   171  170  172 1   
   172  173  174 1   
   173  173  175 1   
   174  176  177 1   
   175  176  178 1   
   176  179  180 1   
   177  179  181 1   
@<TRIPOS>SUBSTRUCTURE
     1 MOL         1 TEMP              0 ****  ****    0 ROOT
