@<TRIPOS>MOLECULE
MOL
  198   191     1     0     0
SMALL
resp


@<TRIPOS>ATOM
      1 C1         -9.1840   -7.1960    0.6160 c3        1 MOL     -0.319865
      2 C2         -8.2800   -6.0420    0.1290 c         1 MOL      0.720705
      3 O1         -7.4310   -6.2160   -0.7370 o         1 MOL     -0.640822
      4 H1         -9.2250   -7.1880    1.7050 hc        1 MOL      0.088958
      5 H2        -10.1880   -7.0670    0.2130 hc        1 MOL      0.088958
      6 H3         -8.7750   -8.1470    0.2750 hc        1 MOL      0.088958
      7 N1         -8.4270   -4.7830    0.6920 n         1 MOL     -0.510041
      8 C3         -7.5380   -3.6250    0.4920 c3        1 MOL      0.028529
      9 C4         -6.0650   -3.7710    0.9790 c         1 MOL      0.551552
     10 O2         -5.7560   -4.4080    2.0470 o         1 MOL     -0.502944
     11 C5         -8.1560   -2.4100    1.2120 c3        1 MOL     -0.269567
     12 C6         -9.6190   -2.1740    0.8260 c         1 MOL      0.723116
     13 O3         -9.9600   -1.7740   -0.2920 o         1 MOL     -0.661491
     14 O4        -10.4840   -2.4460    1.7480 o         1 MOL     -0.661491
     15 H4         -9.1610   -4.6320    1.3600 hn        1 MOL      0.293686
     16 H5         -7.4260   -3.4610   -0.5720 h1        1 MOL      0.064620
     17 H6         -7.5190   -1.6480    0.7540 hc        1 MOL      0.065606
     18 H7         -7.9300   -2.4400    2.2740 hc        1 MOL      0.065606
     19 N2         -5.0990   -3.3340    0.2060 n         1 MOL     -0.614886
     20 C7         -3.6190   -3.3950    0.5550 c3        1 MOL      0.424448
     21 C8         -3.2100   -2.5390    1.7730 c         1 MOL      0.243926
     22 O5         -2.7740   -3.0950    2.7640 o         1 MOL     -0.464915
     23 C9         -2.8280   -3.0640   -0.7570 c3        1 MOL      0.018684
     24 C10        -2.4760   -4.3380   -1.6400 c3        1 MOL     -0.209855
     25 C11        -3.7360   -5.1530   -2.1630 c3        1 MOL      0.031849
     26 C12        -3.2600   -6.2710   -3.1420 c3        1 MOL      0.002654
     27 N3         -4.3810   -6.8960   -3.8470 n4        1 MOL     -0.331207
     28 H8         -5.3660   -2.8950   -0.6640 hn        1 MOL      0.252741
     29 H9         -3.3390   -4.3920    0.8660 h1        1 MOL     -0.004840
     30 H10        -1.9160   -2.5610   -0.4240 hc        1 MOL     -0.008588
     31 H11        -3.3780   -2.3660   -1.3980 hc        1 MOL     -0.008588
     32 H12        -1.8170   -4.9540   -1.0290 hc        1 MOL      0.091640
     33 H13        -1.8840   -4.0960   -2.5170 hc        1 MOL      0.091640
     34 H14        -4.4490   -4.5700   -2.7490 hc        1 MOL      0.048728
     35 H15        -4.3620   -5.5960   -1.3730 hc        1 MOL      0.048728
     36 H16        -2.7710   -6.9850   -2.4890 hx        1 MOL      0.062262
     37 H17        -2.5820   -5.7570   -3.8230 hx        1 MOL      0.062262
     38 H18        -4.7900   -7.5180   -3.1570 hn        1 MOL      0.297857
     39 H19        -5.0680   -6.2130   -4.1370 hn        1 MOL      0.297857
     40 H20        -4.0590   -7.3720   -4.6800 hn        1 MOL      0.297857
     41 N4         -3.5680   -1.2120    1.9260 n         1 MOL     -0.104597
     42 C13        -4.0270   -0.3270    0.9490 c3        1 MOL     -0.332118
     43 C14        -4.9700    0.7840    1.5260 c         1 MOL      0.453046
     44 O6         -4.6190    1.3310    2.5720 o         1 MOL     -0.461342
     45 C15        -2.9710    0.3280    0.0940 c3        1 MOL     -0.145498
     46 C16        -1.9090    1.0260    0.9700 c         1 MOL      0.734373
     47 O7         -1.7470    2.2790    1.0560 o         1 MOL     -0.701783
     48 O8         -0.9720    0.3330    1.4790 o         1 MOL     -0.701783
     49 H21        -3.3790   -0.7510    2.8030 hn        1 MOL      0.265235
     50 H22        -4.7390   -0.8890    0.3430 h1        1 MOL      0.174817
     51 H23        -3.4250    1.1000   -0.5340 hc        1 MOL      0.036209
     52 H24        -2.5570   -0.4650   -0.5290 hc        1 MOL      0.036209
     53 N5         -6.1160    1.1150    0.9180 n         1 MOL     -0.328380
     54 C17        -6.9330    2.1460    1.4470 c3        1 MOL     -0.086672
     55 C18        -6.8540    3.4440    0.7190 c         1 MOL      0.678364
     56 O9         -7.8020    3.7370    0.0400 o         1 MOL     -0.522790
     57 H25        -6.3940    0.6940    0.0390 hn        1 MOL      0.274858
     58 H26        -6.7440    2.1610    2.5270 h1        1 MOL      0.093411
     59 H27        -7.9800    1.8240    1.4640 h1        1 MOL      0.093411
     60 N6         -5.8730    4.3310    0.9110 n         1 MOL     -0.588056
     61 C19        -5.5800    5.5290    0.1470 c3        1 MOL      0.334564
     62 C20        -5.4690    5.1870   -1.3800 c         1 MOL      0.419042
     63 O10        -6.4380    5.2540   -2.1600 o         1 MOL     -0.502392
     64 C21        -6.5440    6.6770    0.5530 c3        1 MOL     -0.100687
     65 C22        -6.5550    7.0000    2.0790 c         1 MOL      0.671173
     66 O11        -7.6580    7.0340    2.6480 o         1 MOL     -0.618369
     67 O12        -5.4680    7.1470    2.6580 o         1 MOL     -0.618369
     68 H28        -5.0950    4.1630    1.5420 hn        1 MOL      0.269933
     69 H29        -4.6160    5.9080    0.4770 h1        1 MOL     -0.063733
     70 H30        -7.5580    6.4630    0.2240 hc        1 MOL      0.001720
     71 H31        -6.1680    7.5660    0.0380 hc        1 MOL      0.001720
     72 N7         -4.2330    4.8370   -1.8130 n         1 MOL     -0.419391
     73 C23        -3.0000    4.7900   -1.0710 c3        1 MOL     -0.044554
     74 C24        -1.9670    3.9080   -1.7700 c         1 MOL      0.440421
     75 O13        -2.1570    3.1110   -2.7170 o         1 MOL     -0.492987
     76 H32        -4.1490    4.4520   -2.7460 hn        1 MOL      0.270612
     77 H33        -3.1180    4.4480   -0.0410 h1        1 MOL      0.091667
     78 H34        -2.6000    5.7980   -0.9730 h1        1 MOL      0.091667
     79 N8         -0.7340    4.0560   -1.2900 n         1 MOL     -0.308390
     80 C25         0.4550    3.6160   -1.9670 c3        1 MOL     -0.061571
     81 C26         0.5870    2.0910   -2.0300 c         1 MOL      0.989107
     82 O14         0.6890    1.4690   -0.9930 o         1 MOL     -0.737698
     83 C27         1.6850    4.3600   -1.4640 c3        1 MOL      0.258568
     84 C28         2.9670    3.8670   -2.1350 c3        1 MOL     -0.269951
     85 O15         1.9400    4.0540   -0.1290 oh        1 MOL     -0.646913
     86 H35        -0.5750    4.7450   -0.5640 hn        1 MOL      0.236151
     87 H36         0.3180    3.9080   -3.0090 h1        1 MOL      0.025798
     88 H37         1.4750    5.4210   -1.5940 h1        1 MOL      0.023253
     89 H38         2.6370    4.6740    0.0790 ho        1 MOL      0.418208
     90 H39         3.7760    4.5500   -1.9000 hc        1 MOL      0.067725
     91 H40         3.2980    2.8900   -1.7650 hc        1 MOL      0.067725
     92 H41         2.8210    3.8130   -3.2180 hc        1 MOL      0.067725
     93 N9          0.4940    1.5780   -3.2080 n         1 MOL     -0.747276
     94 C29         0.7540    0.1800   -3.6430 c3        1 MOL      0.020396
     95 C30         2.0340   -0.4380   -3.1210 c         1 MOL      0.731199
     96 O16         2.4440   -0.1530   -2.0140 o         1 MOL     -0.570880
     97 C31        -0.4910   -0.6300   -3.2820 c3        1 MOL      0.188701
     98 C32        -1.8740   -0.1070   -3.6800 c3        1 MOL     -0.076271
     99 C33        -0.3190   -2.0320   -3.8200 c3        1 MOL     -0.133090
    100 C34        -1.8400    0.5200   -5.1190 c3        1 MOL     -0.466311
    101 H42         0.0270    2.1290   -3.9130 hn        1 MOL      0.357073
    102 H43         0.8090    0.1290   -4.7300 h1        1 MOL      0.054096
    103 H44        -0.6300   -0.7880   -2.2110 hc        1 MOL      0.031792
    104 H45        -2.1850    0.6620   -2.9590 hc        1 MOL      0.081537
    105 H46        -2.6180   -0.8960   -3.7190 hc        1 MOL      0.081537
    106 H47         0.3000   -2.0380   -4.7140 hc        1 MOL      0.009171
    107 H48         0.0690   -2.7780   -3.1250 hc        1 MOL      0.009171
    108 H49        -1.2580   -2.4780   -4.1660 hc        1 MOL      0.009171
    109 H50        -1.7500   -0.3690   -5.7450 hc        1 MOL      0.125518
    110 H51        -2.8280    0.9460   -5.2940 hc        1 MOL      0.125518
    111 H52        -1.0790    1.2750   -5.2700 hc        1 MOL      0.125518
    112 N10         2.6750   -1.2270   -3.9660 n         1 MOL     -0.596566
    113 C35         3.6670   -2.1780   -3.4720 c3        1 MOL     -0.090575
    114 C36         5.0490   -1.6210   -3.0530 c         1 MOL      0.357428
    115 O17         5.8900   -2.4420   -2.7090 o         1 MOL     -0.520260
    116 C37         3.8740   -3.2380   -4.5310 c3        1 MOL      0.356570
    117 C38         4.6830   -2.7690   -5.7290 c3        1 MOL     -0.295730
    118 O18         2.6440   -3.6790   -5.1040 oh        1 MOL     -0.616161
    119 H53         2.3190   -1.3450   -4.9050 hn        1 MOL      0.338672
    120 H54         3.2050   -2.7090   -2.6370 h1        1 MOL      0.164985
    121 H55         4.4110   -4.0840   -4.0890 h1        1 MOL      0.033114
    122 H56         2.9740   -4.0150   -5.9450 ho        1 MOL      0.389897
    123 H57         4.2100   -1.9930   -6.3180 hc        1 MOL      0.078411
    124 H58         5.5600   -2.1930   -5.4220 hc        1 MOL      0.078411
    125 H59         5.1160   -3.5630   -6.3330 hc        1 MOL      0.078411
    126 N11         5.2730   -0.3430   -3.2120 n         1 MOL     -0.032520
    127 C39         6.5370    0.3260   -2.8550 c3        1 MOL     -0.185087
    128 C40         6.8380    0.3830   -1.3850 c         1 MOL      0.570955
    129 O19         6.8380    1.4650   -0.8200 o         1 MOL     -0.521244
    130 C41         6.7010    1.7030   -3.5890 c3        1 MOL      0.429139
    131 C42         6.9340    1.4990   -5.1190 c3        1 MOL     -0.469844
    132 O20         5.5700    2.4770   -3.3950 oh        1 MOL     -0.582838
    133 H60         4.4380    0.1480   -3.5220 hn        1 MOL      0.116329
    134 H61         7.3120   -0.3210   -3.2620 h1        1 MOL      0.079338
    135 H62         7.5330    2.2800   -3.1950 h1        1 MOL      0.050302
    136 H63         4.8080    2.0520   -3.8000 ho        1 MOL      0.384399
    137 H64         7.1190    2.5040   -5.4900 hc        1 MOL      0.115334
    138 H65         7.6350    0.6700   -5.2680 hc        1 MOL      0.115334
    139 H66         6.0020    1.3250   -5.6530 hc        1 MOL      0.115334
    140 N12         7.1090   -0.7600   -0.7510 n         1 MOL     -0.556866
    141 C43         7.3590   -1.0810    0.6910 c3        1 MOL      0.089147
    142 C44         6.0620   -1.0250    1.5590 c         1 MOL      0.522831
    143 O21         5.1490   -0.2040    1.3380 o         1 MOL     -0.502027
    144 C45         8.5260   -0.1980    1.2270 c3        1 MOL     -0.135753
    145 C46         9.8340   -0.5820    0.5290 c3        1 MOL     -0.072379
    146 C47        10.9590    0.2230    1.0890 c3        1 MOL      0.034419
    147 C48        10.7780    1.6410    0.6060 c3        1 MOL      0.038590
    148 N13        12.1550    2.2850    0.6960 n4        1 MOL     -0.223391
    149 H67         6.9690   -1.5920   -1.3050 hn        1 MOL      0.299153
    150 H68         7.6430   -2.1280    0.8050 h1        1 MOL      0.077363
    151 H69         8.5140   -0.2760    2.3100 hc        1 MOL      0.083203
    152 H70         8.3700    0.8520    0.9710 hc        1 MOL      0.083203
    153 H71         9.8020   -0.4610   -0.5590 hc        1 MOL      0.035426
    154 H72         9.9730   -1.6350    0.7520 hc        1 MOL      0.035426
    155 H73        11.8600   -0.2530    0.6950 hc        1 MOL      0.024233
    156 H74        10.8870    0.1750    2.1720 hc        1 MOL      0.024233
    157 H75        10.1090    2.1970    1.2680 hx        1 MOL      0.078276
    158 H76        10.5630    1.7170   -0.4570 hx        1 MOL      0.078276
    159 H77        12.7470    1.8710   -0.0180 hn        1 MOL      0.194999
    160 H78        12.1240    3.2730    0.5150 hn        1 MOL      0.194999
    161 H79        12.5740    2.2210    1.6120 hn        1 MOL      0.194999
    162 N14         6.0610   -1.8260    2.6210 n         1 MOL     -0.277727
    163 C49         5.1920   -1.8470    3.7290 c3        1 MOL     -0.079030
    164 C50         3.8300   -2.4690    3.3310 c         1 MOL      0.397998
    165 O22         2.8150   -1.9050    3.7290 o         1 MOL     -0.531524
    166 C51         5.7830   -2.5820    4.9340 c3        1 MOL     -0.006408
    167 C52         4.8960   -2.6530    6.1320 c3        1 MOL     -0.241153
    168 C53         5.7270   -2.6830    7.4150 c         1 MOL      0.698122
    169 O23         6.4450   -1.6500    7.6720 o         1 MOL     -0.681233
    170 O24         5.7730   -3.7310    8.1060 o         1 MOL     -0.681233
    171 H80         6.8070   -2.4940    2.6380 hn        1 MOL      0.189493
    172 H81         5.1200   -0.7910    3.9630 h1        1 MOL      0.093950
    173 H82         6.6970   -2.0770    5.2440 hc        1 MOL      0.043627
    174 H83         6.0650   -3.6100    4.7070 hc        1 MOL      0.043627
    175 H84         4.2120   -3.4840    5.9610 hc        1 MOL      0.068825
    176 H85         4.2250   -1.8020    6.2090 hc        1 MOL      0.068825
    177 N15         3.6990   -3.4680    2.4750 n         1 MOL     -0.252492
    178 C54         4.7060   -4.4280    2.0340 c3        1 MOL     -0.105598
    179 H86         4.9080   -5.1360    2.8380 h1        1 MOL      0.072381
    180 H87         4.3380   -4.9670    1.1620 h1        1 MOL      0.072381
    181 H88         5.6230   -3.8990    1.7760 h1        1 MOL      0.072381
    182 H89         2.7580   -3.5340    2.1210 hn        1 MOL      0.291225
    183 Ca1         0.8870    2.2970    1.5320 Ca        1 MOL      1.756526
    184 O25        -0.0900    4.8890    1.7290 oh        1 MOL     -0.880635
    185 H90        -0.7340    5.5130    2.0820 ho        1 MOL      0.432073
    186 H91         0.7500    5.3440    1.8320 ho        1 MOL      0.432073
    187 O26         0.0830    2.7300    4.1090 oh        1 MOL     -0.880635
    188 H92        -0.4300    3.4990    4.3480 ho        1 MOL      0.432073
    189 H93         0.4160    2.3900    4.9410 ho        1 MOL      0.432073
    190 O27         1.8830    0.5190    3.3340 oh        1 MOL     -0.880635
    191 H94         1.8820    0.9120    4.2040 ho        1 MOL      0.432073
    192 H95         2.2190   -0.3670    3.4680 ho        1 MOL      0.432073
    193 O28         2.8440    3.6820    2.5650 oh        1 MOL     -0.880635
    194 H96         2.9430    3.7490    3.5140 ho        1 MOL      0.432073
    195 H97         3.7310    3.7510    2.2260 ho        1 MOL      0.432073
    196 O29         3.0090    0.9680    0.5300 oh        1 MOL     -0.880635
    197 H98         2.7920    0.6730   -0.3490 ho        1 MOL      0.432073
    198 H99         3.7280    0.4030    0.8070 ho        1 MOL      0.432073
@<TRIPOS>BOND
     1    1    2 1   
     2    1    4 1   
     3    1    5 1   
     4    1    6 1   
     5    2    3 2   
     6    2    7 1   
     7    7    8 1   
     8    7   15 1   
     9    8    9 1   
    10    8   11 1   
    11    8   16 1   
    12    9   10 2   
    13    9   19 1   
    14   11   12 1   
    15   11   17 1   
    16   11   18 1   
    17   12   13 1   
    18   12   14 1   
    19   19   20 1   
    20   19   28 1   
    21   20   21 1   
    22   20   23 1   
    23   20   29 1   
    24   21   22 2   
    25   21   41 1   
    26   23   24 1   
    27   23   30 1   
    28   23   31 1   
    29   24   25 1   
    30   24   32 1   
    31   24   33 1   
    32   25   26 1   
    33   25   34 1   
    34   25   35 1   
    35   26   27 1   
    36   26   36 1   
    37   26   37 1   
    38   27   38 1   
    39   27   39 1   
    40   27   40 1   
    41   41   42 1   
    42   41   49 1   
    43   42   43 1   
    44   42   45 1   
    45   42   50 1   
    46   43   44 2   
    47   43   53 1   
    48   45   46 1   
    49   45   51 1   
    50   45   52 1   
    51   46   47 1   
    52   46   48 1   
    53   53   54 1   
    54   53   57 1   
    55   54   55 1   
    56   54   58 1   
    57   54   59 1   
    58   55   56 2   
    59   55   60 1   
    60   60   61 1   
    61   60   68 1   
    62   61   62 1   
    63   61   64 1   
    64   61   69 1   
    65   62   63 2   
    66   62   72 1   
    67   64   65 1   
    68   64   70 1   
    69   64   71 1   
    70   65   66 1   
    71   65   67 1   
    72   72   73 1   
    73   72   76 1   
    74   73   74 1   
    75   73   77 1   
    76   73   78 1   
    77   74   75 2   
    78   74   79 1   
    79   79   80 1   
    80   79   86 1   
    81   80   81 1   
    82   80   83 1   
    83   80   87 1   
    84   81   82 2   
    85   81   93 1   
    86   83   84 1   
    87   83   85 1   
    88   83   88 1   
    89   84   90 1   
    90   84   91 1   
    91   84   92 1   
    92   85   89 1   
    93   93   94 1   
    94   93  101 1   
    95   94   95 1   
    96   94   97 1   
    97   94  102 1   
    98   95   96 2   
    99   95  112 1   
   100   97   98 1   
   101   97   99 1   
   102   97  103 1   
   103   98  100 1   
   104   98  104 1   
   105   98  105 1   
   106   99  106 1   
   107   99  107 1   
   108   99  108 1   
   109  100  109 1   
   110  100  110 1   
   111  100  111 1   
   112  112  113 1   
   113  112  119 1   
   114  113  114 1   
   115  113  116 1   
   116  113  120 1   
   117  114  115 2   
   118  114  126 1   
   119  116  117 1   
   120  116  118 1   
   121  116  121 1   
   122  117  123 1   
   123  117  124 1   
   124  117  125 1   
   125  118  122 1   
   126  126  127 1   
   127  126  133 1   
   128  127  128 1   
   129  127  130 1   
   130  127  134 1   
   131  128  129 2   
   132  128  140 1   
   133  130  131 1   
   134  130  132 1   
   135  130  135 1   
   136  131  137 1   
   137  131  138 1   
   138  131  139 1   
   139  132  136 1   
   140  140  141 1   
   141  140  149 1   
   142  141  142 1   
   143  141  144 1   
   144  141  150 1   
   145  142  143 2   
   146  142  162 1   
   147  144  145 1   
   148  144  151 1   
   149  144  152 1   
   150  145  146 1   
   151  145  153 1   
   152  145  154 1   
   153  146  147 1   
   154  146  155 1   
   155  146  156 1   
   156  147  148 1   
   157  147  157 1   
   158  147  158 1   
   159  148  159 1   
   160  148  160 1   
   161  148  161 1   
   162  162  163 1   
   163  162  171 1   
   164  163  164 1   
   165  163  166 1   
   166  163  172 1   
   167  164  165 2   
   168  164  177 1   
   169  166  167 1   
   170  166  173 1   
   171  166  174 1   
   172  167  168 1   
   173  167  175 1   
   174  167  176 1   
   175  168  169 1   
   176  168  170 1   
   177  177  178 1   
   178  177  182 1   
   179  178  179 1   
   180  178  180 1   
   181  178  181 1   
   182  184  185 1   
   183  184  186 1   
   184  187  188 1   
   185  187  189 1   
   186  190  191 1   
   187  190  192 1   
   188  193  194 1   
   189  193  195 1   
   190  196  197 1   
   191  196  198 1   
@<TRIPOS>SUBSTRUCTURE
     1 MOL         1 TEMP              0 ****  ****    0 ROOT
