@<TRIPOS>MOLECULE
MOL
  192   187     1     0     0
SMALL
resp


@<TRIPOS>ATOM
      1 C1         -5.7820   -3.6150    5.1780 c3        1 MOL     -0.281229
      2 C2         -5.4150   -2.9460    3.8200 c         1 MOL      0.660587
      3 O1         -4.9770   -3.5860    2.8690 o         1 MOL     -0.569606
      4 H1         -5.0300   -3.3560    5.9240 hc        1 MOL      0.075030
      5 H2         -6.7570   -3.2580    5.5080 hc        1 MOL      0.075030
      6 H3         -5.8130   -4.6970    5.0540 hc        1 MOL      0.075030
      7 N1         -5.5450   -1.6000    3.7800 n         1 MOL     -0.413512
      8 C3         -5.4550   -0.6960    2.6410 c3        1 MOL      0.362923
      9 C4         -4.0200   -0.6570    2.1050 c         1 MOL     -0.049434
     10 O2         -3.9040    0.1050    1.1060 o         1 MOL     -0.244454
     11 C5         -5.9900    0.7220    2.8640 c3        1 MOL     -0.094150
     12 C6         -7.3570    0.8700    3.4910 c         1 MOL      0.612025
     13 O3         -8.2460    1.5090    2.8540 o         1 MOL     -0.662327
     14 O4         -7.6000    0.2780    4.5840 o         1 MOL     -0.662327
     15 H4         -5.9630   -1.2100    4.6040 hn        1 MOL      0.165056
     16 H5         -6.0220   -1.1890    1.8560 h1        1 MOL      0.045906
     17 H6         -5.9870    1.2720    1.9150 hc        1 MOL     -0.014028
     18 H7         -5.2080    1.1890    3.4660 hc        1 MOL     -0.014028
     19 N2         -3.0550   -1.4240    2.5460 n         1 MOL     -0.174301
     20 C7         -1.6640   -1.0480    2.4490 c3        1 MOL      0.132695
     21 C8         -0.7480   -2.2180    1.8930 c         1 MOL      0.326281
     22 O5         -0.9640   -3.3290    2.2910 o         1 MOL     -0.498074
     23 C9         -1.0930   -0.5590    3.8280 c3        1 MOL     -0.257627
     24 C10        -2.0670    0.3170    4.5850 c3        1 MOL      0.259488
     25 C11        -1.4300    0.7950    5.8920 c3        1 MOL      0.065205
     26 C12        -2.3100    1.8250    6.5850 c3        1 MOL      0.109967
     27 N3         -1.7570    2.3070    7.8480 n4        1 MOL     -0.418115
     28 H8         -3.3010   -1.9890    3.3490 hn        1 MOL      0.227122
     29 H9         -1.5730   -0.2800    1.6830 h1        1 MOL      0.095673
     30 H10        -0.1600   -0.0310    3.6910 hc        1 MOL      0.069666
     31 H11        -0.9200   -1.4350    4.4580 hc        1 MOL      0.069666
     32 H12        -2.9690   -0.2390    4.8380 hc        1 MOL     -0.074980
     33 H13        -2.2730    1.1690    3.9400 hc        1 MOL     -0.074980
     34 H14        -0.4390    1.1660    5.6420 hc        1 MOL     -0.009055
     35 H15        -1.1750   -0.0040    6.5850 hc        1 MOL     -0.009055
     36 H16        -3.2380    1.2790    6.7340 hx        1 MOL      0.045456
     37 H17        -2.4450    2.7050    5.9460 hx        1 MOL      0.045456
     38 H18        -0.8190    2.5490    7.5460 hn        1 MOL      0.337446
     39 H19        -2.1290    3.2220    8.0480 hn        1 MOL      0.337446
     40 H20        -1.8620    1.7160    8.6660 hn        1 MOL      0.337446
     41 N4          0.2070   -2.0680    1.0090 n         1 MOL      0.101350
     42 C13         0.8620   -0.8810    0.4500 c3        1 MOL     -0.561053
     43 C14         1.3880    0.1460    1.4260 c         1 MOL      0.471035
     44 O6          1.1150    1.3730    1.3880 o         1 MOL     -0.420725
     45 C15         0.1840   -0.3540   -0.7890 c3        1 MOL      0.023462
     46 C16         0.2810   -1.3160   -1.9400 c         1 MOL      0.625787
     47 O7         -0.3930   -1.0090   -2.9110 o         1 MOL     -0.666514
     48 O8          0.8640   -2.4380   -1.8680 o         1 MOL     -0.666514
     49 H21         0.5420   -2.8930    0.5280 hn        1 MOL      0.068938
     50 H22         1.7990   -1.2450    0.0130 h1        1 MOL      0.092102
     51 H23         0.5750    0.6120   -1.1170 hc        1 MOL      0.082554
     52 H24        -0.8600   -0.1070   -0.6160 hc        1 MOL      0.082554
     53 N5          2.1560   -0.2220    2.4190 n         1 MOL     -0.381450
     54 C17         2.9840   -1.4320    2.4890 c3        1 MOL     -0.035566
     55 C18         4.2840   -1.2170    3.2940 c         1 MOL      0.648034
     56 O9          4.3550   -0.2820    4.0280 o         1 MOL     -0.581913
     57 H25         2.4630    0.5160    3.0370 hn        1 MOL      0.285191
     58 H26         3.2490   -1.7020    1.4690 h1        1 MOL      0.091932
     59 H27         2.4300   -2.2830    2.8680 h1        1 MOL      0.091932
     60 N6          5.3940   -1.8160    2.9250 n         1 MOL     -0.567364
     61 C19         5.4980   -2.9300    1.9150 c3        1 MOL      0.026498
     62 C20         6.6000   -2.6430    0.8840 c         1 MOL      0.435609
     63 O10         7.6120   -2.0050    1.1800 o         1 MOL     -0.436661
     64 C21         5.7950   -4.2220    2.6840 c3        1 MOL     -0.158350
     65 C22         7.2420   -4.4870    3.1200 c         1 MOL      0.684813
     66 O11         8.0520   -5.0510    2.2740 o         1 MOL     -0.643081
     67 O12         7.5850   -4.0620    4.2280 o         1 MOL     -0.643081
     68 H28         6.2570   -1.5220    3.3760 hn        1 MOL      0.385596
     69 H29         4.5910   -3.0890    1.3380 h1        1 MOL      0.058910
     70 H30         5.4210   -5.0790    2.1280 hc        1 MOL      0.011134
     71 H31         5.2660   -4.3120    3.6370 hc        1 MOL      0.011134
     72 N7          6.4040   -3.1640   -0.3310 n         1 MOL     -0.251218
     73 C23         7.2260   -2.8380   -1.4800 c3        1 MOL     -0.255565
     74 C24         7.1050   -1.4050   -1.9930 c         1 MOL      0.617189
     75 O13         7.9290   -0.9720   -2.8040 o         1 MOL     -0.548610
     76 H32         5.5440   -3.6650   -0.4710 hn        1 MOL      0.213746
     77 H33         7.1030   -3.5820   -2.2730 h1        1 MOL      0.150225
     78 H34         8.2560   -2.9810   -1.1360 h1        1 MOL      0.150225
     79 N8          5.9740   -0.6920   -1.7100 n         1 MOL     -0.470910
     80 C25         5.8650    0.8440   -1.7260 c3        1 MOL      0.006851
     81 C26         4.8370    1.4080   -0.7560 c         1 MOL      0.643982
     82 O14         3.8170    0.7800   -0.5060 o         1 MOL     -0.403173
     83 C27         5.6330    1.5310   -3.0720 c3        1 MOL      0.311900
     84 C28         4.8360    0.6590   -3.9550 c3        1 MOL     -0.109959
     85 O15         6.8780    1.9520   -3.5700 oh        1 MOL     -0.668857
     86 H35         5.3140   -1.0930   -1.0590 hn        1 MOL      0.178025
     87 H36         6.8120    1.3260   -1.4940 h1        1 MOL      0.080923
     88 H37         5.0090    2.4270   -3.0530 h1        1 MOL      0.077292
     89 H38         7.4220    1.1640   -3.6590 ho        1 MOL      0.425345
     90 H39         4.0560    0.1300   -3.4180 hc        1 MOL      0.018420
     91 H40         4.3100    1.3020   -4.6740 hc        1 MOL      0.018420
     92 H41         5.4550   -0.0230   -4.5370 hc        1 MOL      0.018420
     93 N9          5.1250    2.5790   -0.1020 n         1 MOL     -0.703000
     94 C29         4.3680    3.0700    1.0530 c3        1 MOL     -0.041546
     95 C30         3.0070    3.6850    0.6730 c         1 MOL      0.156658
     96 O16         2.3110    4.1870    1.5000 o         1 MOL     -0.457236
     97 C31         5.2950    3.8880    1.9860 c3        1 MOL      0.278613
     98 C32         5.6460    5.3090    1.3730 c3        1 MOL      0.001625
     99 C33         6.5030    3.0530    2.2590 c3        1 MOL     -0.348285
    100 C34         6.4080    6.2840    2.3220 c3        1 MOL     -0.249964
    101 H42         5.9570    3.0940   -0.3560 hn        1 MOL      0.336699
    102 H43         3.9900    2.1970    1.5910 h1        1 MOL      0.150161
    103 H44         4.7230    4.0560    2.9020 hc        1 MOL      0.003573
    104 H45         4.7710    5.7950    0.9440 hc        1 MOL      0.029210
    105 H46         6.2920    5.1450    0.5080 hc        1 MOL      0.029210
    106 H47         7.0940    2.8500    1.3660 hc        1 MOL      0.088137
    107 H48         7.0220    3.5220    3.0930 hc        1 MOL      0.088137
    108 H49         6.1880    2.0980    2.6880 hc        1 MOL      0.088137
    109 H50         6.1710    7.2940    1.9810 hc        1 MOL      0.064562
    110 H51         6.0050    6.2160    3.3310 hc        1 MOL      0.064562
    111 H52         7.4870    6.1770    2.3770 hc        1 MOL      0.064562
    112 N10         2.6270    3.5600   -0.6390 n         1 MOL      0.307882
    113 C35         1.7190    4.5570   -1.2670 c3        1 MOL     -0.273758
    114 C36         0.2360    4.3880   -0.8450 c         1 MOL      0.533914
    115 O17        -0.4700    5.3220   -0.9800 o         1 MOL     -0.612388
    116 C37         1.8940    4.6230   -2.8180 c3        1 MOL      0.270889
    117 C38         1.3600    3.3970   -3.6050 c3        1 MOL     -0.171278
    118 O18         3.2320    4.7600   -3.1670 oh        1 MOL     -0.649589
    119 H53         3.1740    3.0460   -1.3210 hn        1 MOL     -0.020826
    120 H54         2.1140    5.5310   -0.9590 h1        1 MOL      0.150150
    121 H55         1.3030    5.4200   -3.2840 h1        1 MOL      0.034394
    122 H56         3.2970    4.6190   -4.1170 ho        1 MOL      0.419241
    123 H57         1.5380    3.4760   -4.6820 hc        1 MOL      0.039235
    124 H58         1.7650    2.4830   -3.1820 hc        1 MOL      0.039235
    125 H59         0.3060    3.2860   -3.3510 hc        1 MOL      0.039235
    126 N11        -0.2180    3.2400   -0.3370 n         1 MOL     -0.007396
    127 C39        -1.5890    2.8790   -0.0740 c3        1 MOL     -0.007197
    128 C40        -2.5000    2.7140   -1.3320 c         1 MOL      0.359866
    129 O19        -2.2260    3.2580   -2.4000 o         1 MOL     -0.471268
    130 C41        -2.1530    3.8280    0.9860 c3        1 MOL      0.418119
    131 C42        -3.2390    3.1390    1.8560 c3        1 MOL     -0.431259
    132 O20        -2.7720    4.9540    0.5630 oh        1 MOL     -0.684213
    133 H60         0.5660    2.6450   -0.1020 hn        1 MOL     -0.126431
    134 H61        -1.4790    1.9080    0.3950 h1        1 MOL     -0.003288
    135 H62        -1.2940    4.2180    1.5350 h1        1 MOL     -0.003523
    136 H63        -2.2040    5.4230   -0.0590 ho        1 MOL      0.436130
    137 H64        -4.1630    3.0600    1.2810 hc        1 MOL      0.125142
    138 H65        -2.8190    2.1730    2.1190 hc        1 MOL      0.125142
    139 H66        -3.5420    3.6560    2.7730 hc        1 MOL      0.125142
    140 N12        -3.5980    1.9140   -1.2900 n         1 MOL     -0.270362
    141 C43        -4.5980    1.6240   -2.3650 c3        1 MOL      0.020834
    142 C44        -4.9040    0.1120   -2.4700 c         1 MOL      0.570991
    143 O21        -5.3830   -0.2110   -3.5880 o         1 MOL     -0.612122
    144 C45        -5.9210    2.5430   -2.1610 c3        1 MOL     -0.228876
    145 C46        -5.6610    4.0000   -2.4230 c3        1 MOL     -0.090454
    146 C47        -5.3960    4.3240   -3.9340 c3        1 MOL     -0.055856
    147 C48        -4.9800    5.7600   -3.9960 c3        1 MOL      0.051518
    148 N13        -4.4200    6.1640   -5.2950 n4        1 MOL     -0.331992
    149 H67        -3.7900    1.5910   -0.3500 hn        1 MOL      0.218220
    150 H68        -4.0640    1.9060   -3.2750 h1        1 MOL      0.084051
    151 H69        -6.1900    2.4710   -1.1110 hc        1 MOL      0.116858
    152 H70        -6.7770    2.1770   -2.7330 hc        1 MOL      0.116858
    153 H71        -4.8170    4.2960   -1.8020 hc        1 MOL      0.077377
    154 H72        -6.5500    4.5470   -2.1010 hc        1 MOL      0.077377
    155 H73        -6.1630    4.1010   -4.6800 hc        1 MOL      0.049413
    156 H74        -4.5810    3.7150   -4.3260 hc        1 MOL      0.049413
    157 H75        -4.2510    5.7710   -3.1880 hx        1 MOL      0.059491
    158 H76        -5.9000    6.3070   -3.7590 hx        1 MOL      0.059491
    159 H77        -5.1620    6.1880   -5.9750 hn        1 MOL      0.323806
    160 H78        -4.0280    7.0900   -5.1770 hn        1 MOL      0.323806
    161 H79        -3.6860    5.5650   -5.6340 hn        1 MOL      0.323806
    162 N14        -4.6440   -0.7100   -1.4740 n         1 MOL     -0.145128
    163 C49        -4.7020   -2.1850   -1.6910 c3        1 MOL     -0.536411
    164 C50        -6.0820   -2.7330   -1.6540 c         1 MOL      0.645880
    165 O22        -6.8310   -2.5940   -0.7130 o         1 MOL     -0.521020
    166 C51        -3.7910   -2.9320   -0.6740 c3        1 MOL      0.876543
    167 C52        -3.5080   -4.4660   -0.8720 c3        1 MOL     -0.535067
    168 C53        -3.0710   -4.7080   -2.3500 c         1 MOL      0.474035
    169 O23        -3.9520   -4.9080   -3.1310 o         1 MOL     -0.618302
    170 O24        -1.8620   -4.5270   -2.7070 o         1 MOL     -0.618302
    171 H80        -4.3400   -0.3860   -0.5600 hn        1 MOL      0.005306
    172 H81        -4.2880   -2.4670   -2.6560 h1        1 MOL      0.228997
    173 H82        -4.1850   -2.8470    0.3440 hc        1 MOL     -0.170297
    174 H83        -2.7620   -2.5610   -0.6890 hc        1 MOL     -0.170297
    175 H84        -4.5230   -4.8610   -0.7680 hc        1 MOL      0.129888
    176 H85        -2.8110   -4.9460   -0.1990 hc        1 MOL      0.129888
    177 N15        -6.4360   -3.6170   -2.5940 n         1 MOL     -0.423060
    178 C54        -7.6790   -4.3210   -2.6810 c3        1 MOL     -0.107205
    179 H86        -8.2950   -3.8730   -3.4610 h1        1 MOL      0.069103
    180 H87        -7.4880   -5.3670   -2.9230 h1        1 MOL      0.069103
    181 H88        -8.2000   -4.2580   -1.7250 h1        1 MOL      0.069103
    182 H89        -5.7170   -3.9390   -3.2250 hn        1 MOL      0.350031
    183 Ca1         0.7210   -4.6400   -3.1970 Ca        1 MOL      1.540814
    184 O25        -1.0050   -5.4810   -5.3450 oh        1 MOL     -0.754705
    185 H90        -1.8820   -5.5860   -5.7010 ho        1 MOL      0.375578
    186 H91        -0.6860   -6.3660   -5.2080 ho        1 MOL      0.375578
    187 O26         2.6380   -5.2620   -4.9310 oh        1 MOL     -0.754705
    188 H92         2.4710   -5.0270   -5.8450 ho        1 MOL      0.375578
    189 H93         2.9380   -6.1700   -4.9650 ho        1 MOL      0.375578
    190 O27         1.2200   -2.3450   -4.8520 oh        1 MOL     -0.754705
    191 H94         0.7910   -1.6120   -4.4050 ho        1 MOL      0.375578
    192 H95         1.9730   -1.9420   -5.2960 ho        1 MOL      0.375578
@<TRIPOS>BOND
     1    1    2 1   
     2    1    4 1   
     3    1    5 1   
     4    1    6 1   
     5    2    3 2   
     6    2    7 1   
     7    7    8 1   
     8    7   15 1   
     9    8    9 1   
    10    8   11 1   
    11    8   16 1   
    12    9   10 2   
    13    9   19 1   
    14   11   12 1   
    15   11   17 1   
    16   11   18 1   
    17   12   13 1   
    18   12   14 1   
    19   19   20 1   
    20   19   28 1   
    21   20   21 1   
    22   20   23 1   
    23   20   29 1   
    24   21   22 2   
    25   21   41 1   
    26   23   24 1   
    27   23   30 1   
    28   23   31 1   
    29   24   25 1   
    30   24   32 1   
    31   24   33 1   
    32   25   26 1   
    33   25   34 1   
    34   25   35 1   
    35   26   27 1   
    36   26   36 1   
    37   26   37 1   
    38   27   38 1   
    39   27   39 1   
    40   27   40 1   
    41   41   42 1   
    42   41   49 1   
    43   42   43 1   
    44   42   45 1   
    45   42   50 1   
    46   43   44 2   
    47   43   53 1   
    48   45   46 1   
    49   45   51 1   
    50   45   52 1   
    51   46   47 1   
    52   46   48 1   
    53   53   54 1   
    54   53   57 1   
    55   54   55 1   
    56   54   58 1   
    57   54   59 1   
    58   55   56 2   
    59   55   60 1   
    60   60   61 1   
    61   60   68 1   
    62   61   62 1   
    63   61   64 1   
    64   61   69 1   
    65   62   63 2   
    66   62   72 1   
    67   64   65 1   
    68   64   70 1   
    69   64   71 1   
    70   65   66 1   
    71   65   67 1   
    72   72   73 1   
    73   72   76 1   
    74   73   74 1   
    75   73   77 1   
    76   73   78 1   
    77   74   75 2   
    78   74   79 1   
    79   79   80 1   
    80   79   86 1   
    81   80   81 1   
    82   80   83 1   
    83   80   87 1   
    84   81   82 2   
    85   81   93 1   
    86   83   84 1   
    87   83   85 1   
    88   83   88 1   
    89   84   90 1   
    90   84   91 1   
    91   84   92 1   
    92   85   89 1   
    93   93   94 1   
    94   93  101 1   
    95   94   95 1   
    96   94   97 1   
    97   94  102 1   
    98   95   96 2   
    99   95  112 1   
   100   97   98 1   
   101   97   99 1   
   102   97  103 1   
   103   98  100 1   
   104   98  104 1   
   105   98  105 1   
   106   99  106 1   
   107   99  107 1   
   108   99  108 1   
   109  100  109 1   
   110  100  110 1   
   111  100  111 1   
   112  112  113 1   
   113  112  119 1   
   114  113  114 1   
   115  113  116 1   
   116  113  120 1   
   117  114  115 2   
   118  114  126 1   
   119  116  117 1   
   120  116  118 1   
   121  116  121 1   
   122  117  123 1   
   123  117  124 1   
   124  117  125 1   
   125  118  122 1   
   126  126  127 1   
   127  126  133 1   
   128  127  128 1   
   129  127  130 1   
   130  127  134 1   
   131  128  129 2   
   132  128  140 1   
   133  130  131 1   
   134  130  132 1   
   135  130  135 1   
   136  131  137 1   
   137  131  138 1   
   138  131  139 1   
   139  132  136 1   
   140  140  141 1   
   141  140  149 1   
   142  141  142 1   
   143  141  144 1   
   144  141  150 1   
   145  142  143 2   
   146  142  162 1   
   147  144  145 1   
   148  144  151 1   
   149  144  152 1   
   150  145  146 1   
   151  145  153 1   
   152  145  154 1   
   153  146  147 1   
   154  146  155 1   
   155  146  156 1   
   156  147  148 1   
   157  147  157 1   
   158  147  158 1   
   159  148  159 1   
   160  148  160 1   
   161  148  161 1   
   162  162  163 1   
   163  162  171 1   
   164  163  164 1   
   165  163  166 1   
   166  163  172 1   
   167  164  165 2   
   168  164  177 1   
   169  166  167 1   
   170  166  173 1   
   171  166  174 1   
   172  167  168 1   
   173  167  175 1   
   174  167  176 1   
   175  168  169 1   
   176  168  170 1   
   177  177  178 1   
   178  177  182 1   
   179  178  179 1   
   180  178  180 1   
   181  178  181 1   
   182  184  185 1   
   183  184  186 1   
   184  187  188 1   
   185  187  189 1   
   186  190  191 1   
   187  190  192 1   
@<TRIPOS>SUBSTRUCTURE
     1 MOL         1 TEMP              0 ****  ****    0 ROOT
