@<TRIPOS>MOLECULE
MOL
  182   178     1     0     0
SMALL
resp


@<TRIPOS>ATOM
      1 C1         -3.6680   -2.3350    5.2580 c3        1 MOL     -0.233648
      2 C2         -3.1640   -2.4580    3.7980 c         1 MOL      0.712366
      3 O1         -3.9580   -2.7580    2.9230 o         1 MOL     -0.570648
      4 H1         -3.2560   -1.4330    5.7100 hc        1 MOL      0.063318
      5 H2         -4.7570   -2.2780    5.2630 hc        1 MOL      0.063318
      6 H3         -3.3460   -3.2060    5.8280 hc        1 MOL      0.063318
      7 N1         -1.8370   -2.4050    3.6340 n         1 MOL     -0.547735
      8 C3         -1.0970   -2.4880    2.3690 c3        1 MOL     -0.144181
      9 C4         -1.4710   -3.7880    1.5690 c         1 MOL      0.662195
     10 O2         -1.2170   -4.9550    1.9990 o         1 MOL     -0.542169
     11 C5          0.4010   -2.2350    2.6860 c3        1 MOL      0.191564
     12 C6          1.3270   -1.9630    1.4910 c         1 MOL      0.302263
     13 O3          2.4510   -1.4180    1.6220 o         1 MOL     -0.578665
     14 O4          0.8530   -2.1320    0.3410 o         1 MOL     -0.578665
     15 H4         -1.1730   -2.3600    4.3920 hn        1 MOL      0.300318
     16 H5         -1.4320   -1.6940    1.7090 h1        1 MOL      0.054262
     17 H6          0.8300   -3.0640    3.2430 hc        1 MOL      0.006799
     18 H7          0.5010   -1.4500    3.4360 hc        1 MOL      0.006799
     19 N2         -2.0030   -3.5340    0.3540 n         1 MOL     -0.374243
     20 C7         -2.4060   -4.6140   -0.5660 c3        1 MOL     -0.169112
     21 C8         -1.2670   -5.2530   -1.2780 c         1 MOL      0.536873
     22 O5         -1.3320   -6.4060   -1.6860 o         1 MOL     -0.542372
     23 C9         -3.3610   -4.0030   -1.5980 c3        1 MOL      0.186127
     24 C10        -4.2180   -5.1250   -2.2230 c3        1 MOL     -0.192547
     25 C11        -5.3780   -4.5650   -3.0100 c3        1 MOL      0.067006
     26 C12        -6.3660   -3.9650   -1.9260 c3        1 MOL      0.096371
     27 N3         -7.4490   -3.3130   -2.6980 n4        1 MOL     -0.332550
     28 H8         -2.1410   -2.5750    0.0640 hn        1 MOL      0.234059
     29 H9         -2.8960   -5.4090   -0.0120 h1        1 MOL      0.159612
     30 H10        -2.7400   -3.4270   -2.2790 hc        1 MOL     -0.033228
     31 H11        -4.0080   -3.2550   -1.1220 hc        1 MOL     -0.033228
     32 H12        -4.5390   -5.7780   -1.4200 hc        1 MOL      0.075227
     33 H13        -3.5990   -5.6560   -2.9440 hc        1 MOL      0.075227
     34 H14        -5.9420   -5.3290   -3.5640 hc        1 MOL      0.001997
     35 H15        -5.0380   -3.7710   -3.6760 hc        1 MOL      0.001997
     36 H16        -5.9080   -3.1530   -1.3710 hx        1 MOL      0.066164
     37 H17        -6.7290   -4.7260   -1.2380 hx        1 MOL      0.066164
     38 H18        -8.0380   -3.9350   -3.2450 hn        1 MOL      0.282135
     39 H19        -8.0080   -2.7080   -2.1100 hn        1 MOL      0.282135
     40 H20        -7.0290   -2.7460   -3.4260 hn        1 MOL      0.282135
     41 N4         -0.0970   -4.5340   -1.3270 n         1 MOL     -0.306362
     42 C13         1.1990   -5.1050   -1.8600 c3        1 MOL      0.064594
     43 C14         2.2600   -5.4330   -0.8380 c         1 MOL      0.492298
     44 O6          3.1440   -6.2600   -1.0500 o         1 MOL     -0.565454
     45 C15         1.8420   -4.1330   -2.8730 c3        1 MOL     -0.397812
     46 C16         2.0040   -2.7480   -2.3580 c         1 MOL      0.927629
     47 O7          2.9860   -2.4540   -1.6370 o         1 MOL     -0.792048
     48 O8          1.1700   -1.9180   -2.7440 o         1 MOL     -0.792048
     49 H21        -0.0410   -3.6320   -0.8800 hn        1 MOL      0.133377
     50 H22         0.9930   -6.0660   -2.3330 h1        1 MOL      0.108634
     51 H23         1.1230   -4.1070   -3.6920 hc        1 MOL      0.104404
     52 H24         2.7800   -4.5930   -3.1730 hc        1 MOL      0.104404
     53 N5          2.2250   -4.7410    0.3330 n         1 MOL     -0.127500
     54 C17         3.1600   -4.9100    1.4120 c3        1 MOL     -0.250950
     55 C18         4.5280   -4.3360    1.2870 c         1 MOL      0.515700
     56 O9          5.4510   -4.7230    1.9830 o         1 MOL     -0.540105
     57 H25         1.6030   -3.9440    0.3260 hn        1 MOL      0.067915
     58 H26         3.4570   -5.9610    1.4530 h1        1 MOL      0.128762
     59 H27         2.7110   -4.7030    2.3890 h1        1 MOL      0.128762
     60 N6          4.6130   -3.3250    0.3990 n         1 MOL     -0.272839
     61 C19         5.8660   -2.7330   -0.0660 c3        1 MOL      0.037758
     62 C20         5.7370   -1.2010   -0.2820 c         1 MOL      0.538108
     63 O10         4.6320   -0.6260   -0.3510 o         1 MOL     -0.498855
     64 C21         6.3410   -3.5080   -1.3250 c3        1 MOL     -0.106970
     65 C22         6.8120   -4.9430   -1.0540 c         1 MOL      0.456921
     66 N7          5.9780   -5.8600   -0.8670 n         1 MOL     -0.472172
     67 O11         7.9600   -5.2270   -0.9070 o         1 MOL     -0.548856
     68 H28         3.8090   -3.3160   -0.2260 hn        1 MOL      0.275918
     69 H29         6.6260   -2.9150    0.6950 h1        1 MOL      0.078450
     70 H30         7.2680   -3.0200   -1.6240 hc        1 MOL      0.020766
     71 H31         5.7080   -3.4620   -2.2140 hc        1 MOL      0.020766
     72 H32         5.0170   -5.7800   -1.1580 hn        1 MOL      0.281783
     73 H33         6.3730   -6.7950   -0.8740 hn        1 MOL      0.281783
     74 N8          6.8600   -0.5070   -0.4260 n         1 MOL     -0.475444
     75 C23         6.9270    0.8970   -0.9520 c3        1 MOL      0.054471
     76 C24         6.2160    1.8740    0.0330 c         1 MOL      0.461136
     77 O12         6.3630    1.6570    1.3250 o         1 MOL     -0.487701
     78 H34         7.7040   -1.0570   -0.3290 hn        1 MOL      0.317095
     79 H35         6.4710    0.9060   -1.9420 h1        1 MOL      0.051210
     80 H36         7.9820    1.1380   -1.0830 h1        1 MOL      0.051210
     81 N9          5.4040    2.8380   -0.4750 n         1 MOL     -0.471512
     82 C25         4.4920    3.5980    0.4620 c3        1 MOL      0.119032
     83 C26         3.4120    2.7290    1.0610 c         1 MOL      0.796909
     84 O13         3.2050    1.6310    0.5280 o         1 MOL     -0.630115
     85 C27         3.9510    4.8310   -0.3130 c3        1 MOL     -0.075151
     86 C28         5.0910    5.6280   -1.0080 ca        1 MOL      0.136697
     87 C29         5.7520    6.5890   -0.2880 ca        1 MOL     -0.199326
     88 C30         5.1350    5.5620   -2.3840 ca        1 MOL     -0.199326
     89 C31         6.6430    7.4280   -1.0360 ca        1 MOL     -0.215806
     90 C32         5.9840    6.3350   -3.1010 ca        1 MOL     -0.215806
     91 C33         6.7940    7.3140   -2.4350 ca        1 MOL      0.290684
     92 O14         7.7110    8.0800   -3.0340 oh        1 MOL     -0.459024
     93 H37         5.4650    3.1300   -1.4380 hn        1 MOL      0.221536
     94 H38         5.1100    4.0640    1.2280 h1        1 MOL      0.044713
     95 H39         3.4200    5.4950    0.3590 hc        1 MOL      0.014731
     96 H40         3.1900    4.6200   -1.0600 hc        1 MOL      0.014731
     97 H41         5.6040    6.7790    0.7610 ha        1 MOL      0.145235
     98 H42         4.5410    4.7910   -2.8630 ha        1 MOL      0.145235
     99 H43         7.2900    8.1390   -0.5510 ha        1 MOL      0.138530
    100 H44         5.9670    6.2000   -4.1740 ha        1 MOL      0.138530
    101 H45         7.6510    8.1870   -3.9900 ho        1 MOL      0.376993
    102 N10         2.7530    3.3050    2.1160 n         1 MOL     -0.957019
    103 C34         1.8650    2.5580    2.9930 c3        1 MOL      0.644277
    104 C35         0.6470    1.9490    2.2370 c         1 MOL      0.307303
    105 O15         0.8110    1.2330    1.2630 o         1 MOL     -0.408869
    106 C36         2.6240    1.5190    3.8400 c3        1 MOL      0.178121
    107 C37         1.6910    1.1190    5.0190 c3        1 MOL     -0.294056
    108 C38         3.9770    2.0450    4.3730 c3        1 MOL     -0.117532
    109 C39         1.1850    2.2170    5.9830 c3        1 MOL     -0.176868
    110 H46         3.0010    4.2280    2.4390 hn        1 MOL      0.380258
    111 H47         1.4610    3.2900    3.6950 h1        1 MOL     -0.093498
    112 H48         2.7530    0.6320    3.2200 hc        1 MOL     -0.018317
    113 H49         2.2730    0.3990    5.5840 hc        1 MOL      0.096304
    114 H50         0.8050    0.6000    4.6630 hc        1 MOL      0.096304
    115 H51         3.9990    3.1120    4.6010 hc        1 MOL      0.035835
    116 H52         4.3910    1.4610    5.1940 hc        1 MOL      0.035835
    117 H53         4.7600    1.9490    3.6200 hc        1 MOL      0.035835
    118 H54         0.6630    1.7290    6.8000 hc        1 MOL      0.050453
    119 H55         1.9980    2.8450    6.3720 hc        1 MOL      0.050453
    120 H56         0.3270    2.6830    5.4840 hc        1 MOL      0.050453
    121 N11        -0.5490    2.3050    2.6870 n         1 MOL     -0.481491
    122 C40        -1.8850    1.7110    2.3130 c3        1 MOL      0.004924
    123 C41        -2.8400    2.4070    1.2710 c         1 MOL      0.578019
    124 O16        -3.9370    1.9750    1.0140 o         1 MOL     -0.594417
    125 C42        -2.6580    1.4290    3.6070 c3        1 MOL      0.244416
    126 O17        -2.6740    2.5900    4.4780 oh        1 MOL     -0.625556
    127 H57        -0.5420    2.9510    3.4580 hn        1 MOL      0.305327
    128 H58        -1.7190    0.7910    1.7570 h1        1 MOL      0.118427
    129 H59        -2.1870    0.5660    4.0940 h1        1 MOL     -0.006624
    130 H60        -3.6420    0.9810    3.4300 h1        1 MOL     -0.006624
    131 H61        -3.4550    2.5210    5.0270 ho        1 MOL      0.421855
    132 N12        -2.2990    3.2920    0.4940 n         1 MOL     -0.416604
    133 C43        -2.8210    3.8950   -0.7430 c3        1 MOL      0.108081
    134 C44        -2.3040    3.2000   -2.0070 c         1 MOL      0.703411
    135 O18        -1.1250    3.2930   -2.2480 o         1 MOL     -0.607198
    136 C45        -2.5190    5.3990   -0.7310 c3        1 MOL     -0.548234
    137 H62        -1.3510    3.5800    0.7120 hn        1 MOL      0.266800
    138 H63        -3.9100    3.8630   -0.6250 h1        1 MOL      0.122062
    139 H64        -3.0390    5.9050    0.0830 hc        1 MOL      0.156645
    140 H65        -1.5020    5.6650   -0.4430 hc        1 MOL      0.156645
    141 H66        -2.9040    5.8920   -1.6220 hc        1 MOL      0.156645
    142 N13        -3.1340    2.4510   -2.6850 n         1 MOL     -0.688381
    143 C46        -4.5370    2.0300   -2.3980 c3        1 MOL      0.439518
    144 C47        -5.5810    3.0820   -2.6680 c         1 MOL      0.549085
    145 O19        -5.3260    3.9080   -3.5210 o         1 MOL     -0.557396
    146 C48        -4.7850    0.6730   -3.1580 c3        1 MOL     -0.210737
    147 H67        -2.7370    2.0650   -3.5320 hn        1 MOL      0.345192
    148 H68        -4.6110    1.7690   -1.3410 h1        1 MOL      0.031233
    149 H69        -4.9710    0.7980   -4.2210 hc        1 MOL      0.040196
    150 H70        -3.8860    0.1050   -2.9290 hc        1 MOL      0.040196
    151 H71        -5.5440    0.0140   -2.7300 hc        1 MOL      0.040196
    152 N14        -6.7100    3.0800   -1.9160 n         1 MOL     -0.706364
    153 C49        -7.0900    2.4630   -0.6310 c3        1 MOL     -0.127899
    154 C50        -7.6680    3.4370    0.3670 c         1 MOL      0.509310
    155 O20        -7.7330    3.1270    1.5730 o         1 MOL     -0.522182
    156 C51        -8.0470    1.2900   -1.0440 c3        1 MOL     -0.058738
    157 C52        -8.6600    0.5020    0.1010 c3        1 MOL     -0.141622
    158 C53        -9.2630   -0.8700   -0.2450 c         1 MOL      0.609771
    159 O21        -8.4810   -1.7310   -0.7150 o         1 MOL     -0.651951
    160 O22       -10.4680   -1.0330   -0.0790 o         1 MOL     -0.651951
    161 H72        -7.4070    3.6490   -2.3700 hn        1 MOL      0.372962
    162 H73        -6.2200    2.0180   -0.1550 h1        1 MOL      0.195913
    163 H74        -7.4350    0.5530   -1.5660 hc        1 MOL      0.044717
    164 H75        -8.8220    1.5980   -1.7530 hc        1 MOL      0.044717
    165 H76        -9.4630    1.1250    0.5060 hc        1 MOL      0.058354
    166 H77        -7.9440    0.3650    0.9220 hc        1 MOL      0.058354
    167 N15        -8.1140    4.6300    0.0290 n         1 MOL     -0.272706
    168 C54        -8.5010    5.7010    0.9690 c3        1 MOL     -0.063992
    169 H78        -7.6910    6.4260    1.0480 h1        1 MOL      0.071241
    170 H79        -9.3990    6.1990    0.6030 h1        1 MOL      0.071241
    171 H80        -8.6990    5.2710    1.9510 h1        1 MOL      0.071241
    172 H81        -8.2260    4.7490   -0.9700 hn        1 MOL      0.226365
    173 Ca1         1.9380   -0.1540   -0.8940 Ca        1 MOL      1.797221
    174 O23         1.4830    2.4230   -1.8320 oh        1 MOL     -0.871459
    175 H82         0.5920    2.7760   -1.7220 ho        1 MOL      0.424417
    176 H83         1.8890    2.9830   -2.4890 ho        1 MOL      0.424417
    177 O24         3.3190    0.5480   -3.2360 oh        1 MOL     -0.871459
    178 H84         4.0690   -0.0070   -3.4640 ho        1 MOL      0.424417
    179 H85         3.5810    1.4370   -3.4810 ho        1 MOL      0.424417
    180 O25        -1.1350   -0.0660   -1.2380 oh        1 MOL     -0.871459
    181 H86        -2.0120   -0.3240   -0.9760 ho        1 MOL      0.424417
    182 H87        -1.0850   -0.3090   -2.1640 ho        1 MOL      0.424417
@<TRIPOS>BOND
     1    1    2 1   
     2    1    4 1   
     3    1    5 1   
     4    1    6 1   
     5    2    3 2   
     6    2    7 1   
     7    7    8 1   
     8    7   15 1   
     9    8    9 1   
    10    8   11 1   
    11    8   16 1   
    12    9   10 2   
    13    9   19 1   
    14   11   12 1   
    15   11   17 1   
    16   11   18 1   
    17   12   13 1   
    18   12   14 1   
    19   19   20 1   
    20   19   28 1   
    21   20   21 1   
    22   20   23 1   
    23   20   29 1   
    24   21   22 2   
    25   21   41 1   
    26   23   24 1   
    27   23   30 1   
    28   23   31 1   
    29   24   25 1   
    30   24   32 1   
    31   24   33 1   
    32   25   26 1   
    33   25   34 1   
    34   25   35 1   
    35   26   27 1   
    36   26   36 1   
    37   26   37 1   
    38   27   38 1   
    39   27   39 1   
    40   27   40 1   
    41   41   42 1   
    42   41   49 1   
    43   42   43 1   
    44   42   45 1   
    45   42   50 1   
    46   43   44 2   
    47   43   53 1   
    48   45   46 1   
    49   45   51 1   
    50   45   52 1   
    51   46   47 1   
    52   46   48 1   
    53   53   54 1   
    54   53   57 1   
    55   54   55 1   
    56   54   58 1   
    57   54   59 1   
    58   55   56 2   
    59   55   60 1   
    60   60   61 1   
    61   60   68 1   
    62   61   62 1   
    63   61   64 1   
    64   61   69 1   
    65   62   63 2   
    66   62   74 1   
    67   64   65 1   
    68   64   70 1   
    69   64   71 1   
    70   65   66 1   
    71   65   67 2   
    72   66   72 1   
    73   66   73 1   
    74   74   75 1   
    75   74   78 1   
    76   75   76 1   
    77   75   79 1   
    78   75   80 1   
    79   76   77 2   
    80   76   81 1   
    81   81   82 1   
    82   81   93 1   
    83   82   83 1   
    84   82   85 1   
    85   82   94 1   
    86   83   84 2   
    87   83  102 1   
    88   85   86 1   
    89   85   95 1   
    90   85   96 1   
    91   86   87 ar  
    92   86   88 ar  
    93   87   89 ar  
    94   87   97 1   
    95   88   90 ar  
    96   88   98 1   
    97   89   91 ar  
    98   89   99 1   
    99   90   91 ar  
   100   90  100 1   
   101   91   92 1   
   102   92  101 1   
   103  102  103 1   
   104  102  110 1   
   105  103  104 1   
   106  103  106 1   
   107  103  111 1   
   108  104  105 2   
   109  104  121 1   
   110  106  107 1   
   111  106  108 1   
   112  106  112 1   
   113  107  109 1   
   114  107  113 1   
   115  107  114 1   
   116  108  115 1   
   117  108  116 1   
   118  108  117 1   
   119  109  118 1   
   120  109  119 1   
   121  109  120 1   
   122  121  122 1   
   123  121  127 1   
   124  122  123 1   
   125  122  125 1   
   126  122  128 1   
   127  123  124 2   
   128  123  132 1   
   129  125  126 1   
   130  125  129 1   
   131  125  130 1   
   132  126  131 1   
   133  132  133 1   
   134  132  137 1   
   135  133  134 1   
   136  133  136 1   
   137  133  138 1   
   138  134  135 2   
   139  134  142 1   
   140  136  139 1   
   141  136  140 1   
   142  136  141 1   
   143  142  143 1   
   144  142  147 1   
   145  143  144 1   
   146  143  146 1   
   147  143  148 1   
   148  144  145 2   
   149  144  152 1   
   150  146  149 1   
   151  146  150 1   
   152  146  151 1   
   153  152  153 1   
   154  152  161 1   
   155  153  154 1   
   156  153  156 1   
   157  153  162 1   
   158  154  155 2   
   159  154  167 1   
   160  156  157 1   
   161  156  163 1   
   162  156  164 1   
   163  157  158 1   
   164  157  165 1   
   165  157  166 1   
   166  158  159 1   
   167  158  160 1   
   168  167  168 1   
   169  167  172 1   
   170  168  169 1   
   171  168  170 1   
   172  168  171 1   
   173  174  175 1   
   174  174  176 1   
   175  177  178 1   
   176  177  179 1   
   177  180  181 1   
   178  180  182 1   
@<TRIPOS>SUBSTRUCTURE
     1 MOL         1 TEMP              0 ****  ****    0 ROOT
