@<TRIPOS>MOLECULE
MOL
  186   183     1     0     0
SMALL
resp


@<TRIPOS>ATOM
      1 C1        -11.9330    4.6750    4.0470 c3        1 MOL     -0.342873
      2 C2        -12.2030    3.6760    2.9000 c         1 MOL      0.525057
      3 O1        -13.0930    2.8320    2.9610 o         1 MOL     -0.570424
      4 H1        -10.8660    4.8920    4.0960 hc        1 MOL      0.098667
      5 H2        -12.4830    5.5980    3.8630 hc        1 MOL      0.098667
      6 H3        -12.2590    4.2410    4.9920 hc        1 MOL      0.098667
      7 N1        -11.4150    3.7620    1.7780 n         1 MOL     -0.045344
      8 C3        -11.4520    3.1490    0.4380 c3        1 MOL     -0.263406
      9 C4        -10.2300    2.2910    0.1150 c         1 MOL      0.245384
     10 O2         -9.1410    2.4690    0.6780 o         1 MOL     -0.521455
     11 C5        -11.6510    4.2800   -0.6190 c3        1 MOL      0.041951
     12 C6        -10.7540    5.5840   -0.4400 c         1 MOL      0.497992
     13 O3         -9.6670    5.4460    0.0880 o         1 MOL     -0.631365
     14 O4        -11.1780    6.6600   -0.9630 o         1 MOL     -0.631365
     15 H4        -10.7210    4.4890    1.7700 hn        1 MOL      0.081158
     16 H5        -12.3350    2.5150    0.3880 h1        1 MOL      0.091734
     17 H6        -12.7020    4.5490   -0.6150 hc        1 MOL      0.056228
     18 H7        -11.3930    3.8560   -1.5930 hc        1 MOL      0.056228
     19 N2        -10.3840    1.2520   -0.7230 n         1 MOL     -0.072840
     20 C7         -9.5530    0.0110   -0.6460 c3        1 MOL     -0.173332
     21 C8         -8.2970    0.0780   -1.5560 c         1 MOL      0.512096
     22 O5         -8.3130   -0.5080   -2.6590 o         1 MOL     -0.457803
     23 C9        -10.4650   -1.2080   -0.8680 c3        1 MOL      0.052001
     24 C10       -11.7640   -1.2690    0.0310 c3        1 MOL     -0.080114
     25 C11       -12.3820   -2.6910    0.1840 c3        1 MOL      0.005906
     26 C12       -13.5390   -2.3310    1.1650 c3        1 MOL      0.004251
     27 N3        -14.4360   -3.5650    1.1650 n4        1 MOL     -0.224987
     28 H8        -11.2380    1.1520   -1.2510 hn        1 MOL      0.204542
     29 H9         -9.1130   -0.1060    0.3440 h1        1 MOL      0.082540
     30 H10        -9.8940   -2.1270   -0.7410 hc        1 MOL      0.021876
     31 H11       -10.6960   -1.2690   -1.9340 hc        1 MOL      0.021876
     32 H12       -12.4740   -0.5860   -0.4220 hc        1 MOL      0.049053
     33 H13       -11.4560   -0.9110    1.0130 hc        1 MOL      0.049053
     34 H14       -11.7840   -3.5070    0.5900 hc        1 MOL      0.052451
     35 H15       -12.7770   -2.9050   -0.8140 hc        1 MOL      0.052451
     36 H16       -14.0460   -1.4470    0.7790 hx        1 MOL      0.085378
     37 H17       -13.1410   -2.1560    2.1680 hx        1 MOL      0.085378
     38 H18       -14.0000   -4.4400    1.3990 hn        1 MOL      0.266312
     39 H19       -15.1110   -3.4730    1.9130 hn        1 MOL      0.266312
     40 H20       -14.9440   -3.6910    0.3020 hn        1 MOL      0.266312
     41 N4         -7.2980    0.8310   -1.0370 n         1 MOL     -0.138892
     42 C13        -5.8730    1.0890   -1.3980 c3        1 MOL     -0.514246
     43 C14        -5.0690    1.7350   -0.2780 c         1 MOL      0.647417
     44 O6         -5.6650    2.5050    0.4560 o         1 MOL     -0.749594
     45 C15        -5.7540    1.9620   -2.6950 c3        1 MOL     -0.212993
     46 C16        -6.8740    3.0370   -2.8360 c         1 MOL      0.534639
     47 O7         -7.2480    3.4240   -3.9690 o         1 MOL     -0.611653
     48 O8         -7.4020    3.5290   -1.8320 o         1 MOL     -0.611653
     49 H21        -7.6370    1.3140   -0.2130 hn        1 MOL      0.275599
     50 H22        -5.4220    0.1310   -1.6560 h1        1 MOL      0.237514
     51 H23        -6.0000    1.2640   -3.5010 hc        1 MOL      0.122030
     52 H24        -4.7440    2.3560   -2.7860 hc        1 MOL      0.122030
     53 N5         -3.8050    1.5040    0.0380 n         1 MOL     -0.198984
     54 C17        -3.0760    0.3450   -0.5500 c3        1 MOL     -0.370047
     55 C18        -3.6680   -1.0610   -0.2710 c         1 MOL      0.636729
     56 O9         -3.9280   -1.3730    0.8880 o         1 MOL     -0.537261
     57 H25        -3.2830    2.1700    0.5800 hn        1 MOL      0.259163
     58 H26        -2.0520    0.3380   -0.1740 h1        1 MOL      0.141094
     59 H27        -2.9970    0.4420   -1.6390 h1        1 MOL      0.141094
     60 N6         -3.8220   -1.9330   -1.3290 n         1 MOL     -0.399881
     61 C19        -4.3770   -3.2430   -1.2080 c3        1 MOL      0.211067
     62 C20        -3.4600   -4.3540   -1.7320 c         1 MOL      0.373262
     63 O10        -2.7440   -4.1570   -2.7250 o         1 MOL     -0.515534
     64 C21        -5.8490   -3.2700   -1.8270 c3        1 MOL     -0.160123
     65 C22        -6.8400   -4.2850   -1.3450 c         1 MOL      0.684767
     66 O11        -7.9800   -4.3610   -1.8650 o         1 MOL     -0.693191
     67 O12        -6.4800   -5.1200   -0.5230 o         1 MOL     -0.693191
     68 H28        -3.4720   -1.6790   -2.2390 hn        1 MOL      0.234741
     69 H29        -4.5260   -3.3960   -0.1350 h1        1 MOL     -0.031874
     70 H30        -5.7660   -3.4930   -2.8940 hc        1 MOL      0.035103
     71 H31        -6.2700   -2.2680   -1.8340 hc        1 MOL      0.035103
     72 N7         -3.5090   -5.5000   -1.1310 n         1 MOL     -0.178243
     73 C23        -2.5210   -6.5780   -1.4930 c3        1 MOL     -0.272436
     74 C24        -1.1050   -6.3950   -1.0740 c         1 MOL      0.578788
     75 O13        -0.2690   -7.0820   -1.6390 o         1 MOL     -0.567165
     76 H32        -4.2160   -5.7510   -0.4550 hn        1 MOL      0.239893
     77 H33        -2.4030   -6.5380   -2.5730 h1        1 MOL      0.141848
     78 H34        -2.7460   -7.6050   -1.1770 h1        1 MOL      0.141848
     79 N8         -0.7500   -5.5260   -0.1470 n         1 MOL     -0.228430
     80 C25         0.5660   -5.0940    0.3950 c3        1 MOL      0.034020
     81 C26         0.8030   -3.5600    0.1910 c         1 MOL      0.584769
     82 O14        -0.1460   -2.8580   -0.2290 o         1 MOL     -0.544276
     83 C27         0.5930   -5.2740    1.9570 c3        1 MOL      0.182992
     84 C28        -0.6680   -4.8150    2.7930 c3        1 MOL     -0.142974
     85 O15         0.7530   -6.6540    2.2380 oh        1 MOL     -0.581399
     86 H35        -1.4150   -4.7990    0.0480 hn        1 MOL      0.142824
     87 H36         1.4690   -5.5570   -0.0090 h1        1 MOL      0.049947
     88 H37         1.4510   -4.7870    2.4260 h1        1 MOL      0.009167
     89 H38         1.6470   -6.6710    2.5970 ho        1 MOL      0.371575
     90 H39        -1.5520   -5.2230    2.3240 hc        1 MOL      0.053129
     91 H40        -0.7100   -5.2310    3.8020 hc        1 MOL      0.053129
     92 H41        -0.8280   -3.7460    2.8840 hc        1 MOL      0.053129
     93 N9          1.9980   -3.0000    0.4930 n         1 MOL     -0.543543
     94 C29         2.4120   -1.5470    0.4680 c3        1 MOL      0.024915
     95 C30         3.7940   -1.4180   -0.1320 c         1 MOL      0.596868
     96 O16         4.0170   -0.5740   -1.0130 o         1 MOL     -0.542712
     97 C31         2.4160   -0.8370    1.8790 c3        1 MOL      0.089844
     98 C32         1.1880   -1.2490    2.7560 c3        1 MOL      0.055170
     99 C33         2.5480    0.6720    1.6010 c3        1 MOL      0.020734
    100 C34         1.2730   -0.7140    4.1800 c3        1 MOL     -0.329001
    101 H42         2.6350   -3.6990    0.8470 hn        1 MOL      0.259640
    102 H43         1.7790   -1.0080   -0.2390 h1        1 MOL      0.111723
    103 H44         3.3250   -1.0640    2.4330 hc        1 MOL     -0.020769
    104 H45         1.0660   -2.3350    2.7560 hc        1 MOL      0.017657
    105 H46         0.3860   -0.8400    2.1500 hc        1 MOL      0.017657
    106 H47         2.2010    1.2400    2.4660 hc        1 MOL     -0.004471
    107 H48         3.5790    1.0040    1.4800 hc        1 MOL     -0.004471
    108 H49         1.9750    0.9430    0.7120 hc        1 MOL     -0.004471
    109 H50         2.2930   -0.8570    4.5220 hc        1 MOL      0.085918
    110 H51         0.9400    0.3210    4.1540 hc        1 MOL      0.085918
    111 H52         0.6310   -1.2960    4.8390 hc        1 MOL      0.085918
    112 N10         4.7720   -2.2040    0.3310 n         1 MOL     -0.446432
    113 C35         6.1480   -2.2710   -0.2100 c3        1 MOL     -0.024326
    114 C36         7.1960   -2.4100    0.9650 c         1 MOL      0.565129
    115 O17         6.9130   -2.6280    2.1650 o         1 MOL     -0.508182
    116 C37         6.3850   -3.4330   -1.1970 c3        1 MOL      0.442226
    117 C38         5.3540   -3.4950   -2.2930 c3        1 MOL     -0.308770
    118 O18         7.6900   -3.4560   -1.8520 oh        1 MOL     -0.654722
    119 H53         4.6510   -2.7870    1.1520 hn        1 MOL      0.238753
    120 H54         6.5350   -1.4330   -0.7840 h1        1 MOL      0.109157
    121 H55         6.2430   -4.3560   -0.6210 h1        1 MOL     -0.056415
    122 H56         7.8120   -4.3740   -2.1140 ho        1 MOL      0.403540
    123 H57         5.3540   -2.5480   -2.8450 hc        1 MOL      0.082262
    124 H58         5.6390   -4.3520   -2.9050 hc        1 MOL      0.082262
    125 H59         4.3360   -3.6060   -1.9130 hc        1 MOL      0.082262
    126 N11         8.4890   -2.2300    0.6020 n         1 MOL     -0.614500
    127 C39         9.6380   -2.4090    1.4580 c3        1 MOL      0.031566
    128 C40        10.0100   -1.0050    2.0140 c         1 MOL      0.730441
    129 O19        10.0490   -0.7200    3.2070 o         1 MOL     -0.581301
    130 C41        10.7440   -3.1700    0.7070 c3        1 MOL      0.242580
    131 C42        12.0450   -3.1380    1.5610 c3        1 MOL     -0.505946
    132 O20        10.9170   -2.6350   -0.5780 oh        1 MOL     -0.604446
    133 H60         8.7300   -2.1720   -0.3760 hn        1 MOL      0.383263
    134 H61         9.2850   -2.9590    2.3310 h1        1 MOL      0.077633
    135 H62        10.3560   -4.1860    0.5720 h1        1 MOL      0.056648
    136 H63        11.8260   -2.7790   -0.8260 ho        1 MOL      0.420269
    137 H64        12.4290   -2.1640    1.8650 hc        1 MOL      0.133035
    138 H65        11.8590   -3.5870    2.5290 hc        1 MOL      0.133035
    139 H66        12.8510   -3.5770    0.9700 hc        1 MOL      0.133035
    140 N12        10.2920   -0.1070    1.0360 n         1 MOL     -0.508519
    141 C43        11.0120    1.1870    1.2240 c3        1 MOL      0.110170
    142 C44        10.5090    2.1590    0.1700 c         1 MOL      0.519906
    143 O21        10.1990    1.7340   -0.9540 o         1 MOL     -0.484755
    144 C45        12.5160    0.9220    1.1950 c3        1 MOL     -0.086666
    145 C46        13.1700    0.4640   -0.1240 c3        1 MOL     -0.042704
    146 C47        14.7070    0.6110   -0.1900 c3        1 MOL     -0.051325
    147 C48        15.2470   -0.1170   -1.4320 c3        1 MOL     -0.018173
    148 N13        16.7250   -0.4240   -1.3750 n4        1 MOL     -0.155477
    149 H67        10.3950   -0.5420    0.1410 hn        1 MOL      0.216130
    150 H68        10.7560    1.5910    2.2000 h1        1 MOL      0.083318
    151 H69        12.8230    0.2310    1.9760 hc        1 MOL      0.027379
    152 H70        13.0440    1.8320    1.4800 hc        1 MOL      0.027379
    153 H71        12.7110    1.0440   -0.9230 hc        1 MOL      0.040205
    154 H72        12.8390   -0.5720   -0.1970 hc        1 MOL      0.040205
    155 H73        15.2210    0.2040    0.6840 hc        1 MOL      0.055750
    156 H74        14.9160    1.6730   -0.2730 hc        1 MOL      0.055750
    157 H75        15.0070    0.4990   -2.2960 hx        1 MOL      0.081177
    158 H76        14.6890   -1.0490   -1.4400 hx        1 MOL      0.081177
    159 H77        17.2270    0.4350   -1.1750 hn        1 MOL      0.214919
    160 H78        16.9340   -1.0650   -0.6270 hn        1 MOL      0.214919
    161 H79        17.0400   -0.8040   -2.2520 hn        1 MOL      0.214919
    162 N14        10.4790    3.4720    0.4860 n         1 MOL     -0.596215
    163 C49        10.1320    4.3990   -0.6050 c3        1 MOL      0.415292
    164 C50         8.7280    4.2310   -1.2640 c         1 MOL      0.202218
    165 O22         8.6590    4.2150   -2.4700 o         1 MOL     -0.499666
    166 C51        10.3360    5.7660   -0.1090 c3        1 MOL     -0.059259
    167 C52        10.0730    6.8920   -1.1800 c3        1 MOL     -0.211512
    168 C53        10.8270    8.1940   -0.8460 c         1 MOL      0.699852
    169 O23        11.1880    8.9960   -1.7270 o         1 MOL     -0.644086
    170 O24        10.9260    8.4540    0.3580 o         1 MOL     -0.644086
    171 H80        10.9280    3.6870    1.3720 hn        1 MOL      0.297796
    172 H81        10.8500    4.3030   -1.4210 h1        1 MOL      0.007831
    173 H82        11.3800    5.8250    0.2150 hc        1 MOL      0.014050
    174 H83         9.7430    5.9400    0.7940 hc        1 MOL      0.014050
    175 H84         9.0020    7.1410   -1.1660 hc        1 MOL      0.060221
    176 H85        10.3260    6.5260   -2.1750 hc        1 MOL      0.060221
    177 N15         7.6580    4.0520   -0.5560 n         1 MOL     -0.167450
    178 C54         7.3820    4.2510    0.8590 c3        1 MOL     -0.163358
    179 H86         8.1030    4.9550    1.2750 h1        1 MOL      0.081118
    180 H87         6.3750    4.6510    0.9800 h1        1 MOL      0.081118
    181 H88         7.4610    3.2990    1.3830 h1        1 MOL      0.081118
    182 H89         6.8260    3.9900   -1.1200 hn        1 MOL      0.262119
    183 Ca1        -7.2830    4.5630    0.5460 Ca        1 MOL      1.689457
    184 O25        -7.2660    3.0190    2.7160 oh        1 MOL     -0.844277
    185 H90        -7.7690    3.0570    3.5200 ho        1 MOL      0.427304
    186 H91        -6.6060    2.3400    2.8650 ho        1 MOL      0.427304
@<TRIPOS>BOND
     1    1    2 1   
     2    1    4 1   
     3    1    5 1   
     4    1    6 1   
     5    2    3 2   
     6    2    7 1   
     7    7    8 1   
     8    7   15 1   
     9    8    9 1   
    10    8   11 1   
    11    8   16 1   
    12    9   10 2   
    13    9   19 1   
    14   11   12 1   
    15   11   17 1   
    16   11   18 1   
    17   12   13 1   
    18   12   14 1   
    19   19   20 1   
    20   19   28 1   
    21   20   21 1   
    22   20   23 1   
    23   20   29 1   
    24   21   22 2   
    25   21   41 1   
    26   23   24 1   
    27   23   30 1   
    28   23   31 1   
    29   24   25 1   
    30   24   32 1   
    31   24   33 1   
    32   25   26 1   
    33   25   34 1   
    34   25   35 1   
    35   26   27 1   
    36   26   36 1   
    37   26   37 1   
    38   27   38 1   
    39   27   39 1   
    40   27   40 1   
    41   41   42 1   
    42   41   49 1   
    43   42   43 1   
    44   42   45 1   
    45   42   50 1   
    46   43   44 2   
    47   43   53 1   
    48   45   46 1   
    49   45   51 1   
    50   45   52 1   
    51   46   47 1   
    52   46   48 1   
    53   53   54 1   
    54   53   57 1   
    55   54   55 1   
    56   54   58 1   
    57   54   59 1   
    58   55   56 2   
    59   55   60 1   
    60   60   61 1   
    61   60   68 1   
    62   61   62 1   
    63   61   64 1   
    64   61   69 1   
    65   62   63 2   
    66   62   72 1   
    67   64   65 1   
    68   64   70 1   
    69   64   71 1   
    70   65   66 1   
    71   65   67 1   
    72   72   73 1   
    73   72   76 1   
    74   73   74 1   
    75   73   77 1   
    76   73   78 1   
    77   74   75 2   
    78   74   79 1   
    79   79   80 1   
    80   79   86 1   
    81   80   81 1   
    82   80   83 1   
    83   80   87 1   
    84   81   82 2   
    85   81   93 1   
    86   83   84 1   
    87   83   85 1   
    88   83   88 1   
    89   84   90 1   
    90   84   91 1   
    91   84   92 1   
    92   85   89 1   
    93   93   94 1   
    94   93  101 1   
    95   94   95 1   
    96   94   97 1   
    97   94  102 1   
    98   95   96 2   
    99   95  112 1   
   100   97   98 1   
   101   97   99 1   
   102   97  103 1   
   103   98  100 1   
   104   98  104 1   
   105   98  105 1   
   106   99  106 1   
   107   99  107 1   
   108   99  108 1   
   109  100  109 1   
   110  100  110 1   
   111  100  111 1   
   112  112  113 1   
   113  112  119 1   
   114  113  114 1   
   115  113  116 1   
   116  113  120 1   
   117  114  115 2   
   118  114  126 1   
   119  116  117 1   
   120  116  118 1   
   121  116  121 1   
   122  117  123 1   
   123  117  124 1   
   124  117  125 1   
   125  118  122 1   
   126  126  127 1   
   127  126  133 1   
   128  127  128 1   
   129  127  130 1   
   130  127  134 1   
   131  128  129 2   
   132  128  140 1   
   133  130  131 1   
   134  130  132 1   
   135  130  135 1   
   136  131  137 1   
   137  131  138 1   
   138  131  139 1   
   139  132  136 1   
   140  140  141 1   
   141  140  149 1   
   142  141  142 1   
   143  141  144 1   
   144  141  150 1   
   145  142  143 2   
   146  142  162 1   
   147  144  145 1   
   148  144  151 1   
   149  144  152 1   
   150  145  146 1   
   151  145  153 1   
   152  145  154 1   
   153  146  147 1   
   154  146  155 1   
   155  146  156 1   
   156  147  148 1   
   157  147  157 1   
   158  147  158 1   
   159  148  159 1   
   160  148  160 1   
   161  148  161 1   
   162  162  163 1   
   163  162  171 1   
   164  163  164 1   
   165  163  166 1   
   166  163  172 1   
   167  164  165 2   
   168  164  177 1   
   169  166  167 1   
   170  166  173 1   
   171  166  174 1   
   172  167  168 1   
   173  167  175 1   
   174  167  176 1   
   175  168  169 1   
   176  168  170 1   
   177  177  178 1   
   178  177  182 1   
   179  178  179 1   
   180  178  180 1   
   181  178  181 1   
   182  184  185 1   
   183  184  186 1   
@<TRIPOS>SUBSTRUCTURE
     1 MOL         1 TEMP              0 ****  ****    0 ROOT
