@<TRIPOS>MOLECULE
MOL
  175   173     1     0     0
SMALL
resp


@<TRIPOS>ATOM
      1 C1         -5.5170    8.1600    2.0740 c3        1 MOL     -0.338811
      2 C2         -6.3540    7.5710    0.9010 c         1 MOL      0.640235
      3 O1         -6.3020    8.1540   -0.1640 o         1 MOL     -0.555280
      4 H1         -6.1810    8.4160    2.9000 hc        1 MOL      0.073471
      5 H2         -4.7900    7.4210    2.4090 hc        1 MOL      0.073471
      6 H3         -4.9960    9.0560    1.7360 hc        1 MOL      0.073471
      7 N1         -7.1680    6.5650    1.1960 n         1 MOL     -0.393475
      8 C3         -8.0710    5.9610    0.2140 c3        1 MOL     -0.058071
      9 C4         -7.2890    5.0260   -0.7760 c         1 MOL      0.552426
     10 O2         -7.5540    4.8940   -1.9730 o         1 MOL     -0.539320
     11 C5         -9.3100    5.3560    0.9030 c3        1 MOL     -0.310991
     12 C6        -10.4560    4.8670   -0.0170 c         1 MOL      0.817327
     13 O3        -11.2150    5.6390   -0.5610 o         1 MOL     -0.741561
     14 O4        -10.8190    3.6860    0.0530 o         1 MOL     -0.741561
     15 H4         -7.1100    6.1770    2.1240 hn        1 MOL      0.272543
     16 H5         -8.3410    6.7740   -0.4630 h1        1 MOL      0.108425
     17 H6         -9.7250    6.1740    1.4940 hc        1 MOL      0.057634
     18 H7         -8.9720    4.4970    1.4860 hc        1 MOL      0.057634
     19 N2         -6.2750    4.3540   -0.2060 n         1 MOL     -0.438183
     20 C7         -5.3680    3.4400   -0.9020 c3        1 MOL      0.163857
     21 C8         -4.8200    2.4940    0.2000 c         1 MOL      0.646950
     22 O5         -4.4170    2.9130    1.3040 o         1 MOL     -0.574662
     23 C9         -4.1630    4.2390   -1.5040 c3        1 MOL     -0.362937
     24 H8         -5.9430    4.6720    0.6950 hn        1 MOL      0.223239
     25 H9         -5.9220    2.7900   -1.5870 h1        1 MOL      0.074238
     26 H10        -4.5800    4.9820   -2.1820 hc        1 MOL      0.110434
     27 H11        -3.5300    4.6570   -0.7190 hc        1 MOL      0.110434
     28 H12        -3.4340    3.6300   -2.0470 hc        1 MOL      0.110434
     29 N3         -4.8340    1.1850    0.0470 n         1 MOL     -0.557569
     30 C10        -5.4140    0.3340   -1.0300 c3        1 MOL     -0.057016
     31 C11        -5.6600   -1.0450   -0.4520 c         1 MOL      0.545257
     32 O6         -4.9090   -1.5260    0.3820 o         1 MOL     -0.506071
     33 C12        -4.5510    0.3180   -2.3520 c3        1 MOL     -0.261419
     34 C13        -3.1310   -0.1860   -2.0770 c         1 MOL      0.631668
     35 O7         -2.7640   -1.3840   -2.2750 o         1 MOL     -0.675040
     36 O8         -2.3100    0.5730   -1.4790 o         1 MOL     -0.675040
     37 H13        -4.1450    0.6810    0.5920 hn        1 MOL      0.326481
     38 H14        -6.3680    0.7200   -1.3790 h1        1 MOL      0.098793
     39 H15        -4.4180    1.3070   -2.7790 hc        1 MOL      0.084567
     40 H16        -5.0920   -0.3550   -3.0190 hc        1 MOL      0.084567
     41 N4         -6.8120   -1.6050   -0.7830 n         1 MOL     -0.378569
     42 C14        -7.2270   -2.9080   -0.3870 c3        1 MOL      0.052161
     43 C15        -7.2230   -4.0230   -1.4410 c         1 MOL      0.483237
     44 O9         -8.2490   -4.5440   -1.8880 o         1 MOL     -0.555364
     45 H17        -7.5430   -1.1220   -1.2770 hn        1 MOL      0.302503
     46 H18        -8.2530   -2.8470   -0.0280 h1        1 MOL      0.046036
     47 H19        -6.6510   -3.2890    0.4500 h1        1 MOL      0.046036
     48 N5         -6.0800   -4.5900   -1.7850 n         1 MOL     -0.462479
     49 C16        -4.7350   -4.3480   -1.1740 c3        1 MOL      0.061432
     50 C17        -4.4990   -5.0440    0.1750 c         1 MOL      0.638937
     51 O10        -4.4820   -6.2490    0.3180 o         1 MOL     -0.586493
     52 C18        -3.7190   -4.8890   -2.2370 c3        1 MOL     -0.121062
     53 C19        -2.2860   -4.5140   -1.9160 c         1 MOL      0.603477
     54 N6         -1.3370   -4.8690   -2.7960 n         1 MOL     -0.692614
     55 O11        -1.9900   -3.8570   -0.9110 o         1 MOL     -0.639420
     56 H20        -6.2460   -5.4740   -2.2440 hn        1 MOL      0.304204
     57 H21        -4.5990   -3.2750   -1.0280 h1        1 MOL      0.095840
     58 H22        -3.9490   -4.3210   -3.1430 hc        1 MOL      0.037534
     59 H23        -3.8480   -5.9680   -2.3240 hc        1 MOL      0.037534
     60 H24        -1.6040   -5.1840   -3.7300 hn        1 MOL      0.328849
     61 H25        -0.4050   -4.5240   -2.6260 hn        1 MOL      0.328849
     62 N7         -4.3460   -4.2080    1.1790 n         1 MOL     -0.317523
     63 C20        -4.1310   -4.6250    2.5580 c3        1 MOL     -0.159623
     64 C21        -2.5940   -4.7510    2.8770 c         1 MOL      0.425509
     65 O12        -2.2810   -5.3600    3.8920 o         1 MOL     -0.544132
     66 H26        -4.3450   -3.2120    1.0310 hn        1 MOL      0.224152
     67 H27        -4.7530   -5.4780    2.8230 h1        1 MOL      0.107435
     68 H28        -4.4670   -3.9050    3.2940 h1        1 MOL      0.107435
     69 N8         -1.6660   -4.3940    1.9700 n         1 MOL     -0.179012
     70 C22        -0.2500   -4.8690    2.0500 c3        1 MOL     -0.283421
     71 C23         0.7850   -3.7530    1.8250 c         1 MOL      0.486927
     72 O13         0.5860   -2.9320    0.8880 o         1 MOL     -0.521732
     73 C24         0.0610   -6.1250    1.1120 c3        1 MOL      0.625716
     74 C25        -0.6670   -7.3390    1.5860 c3        1 MOL     -0.573761
     75 O14        -0.0980   -5.8490   -0.2600 oh        1 MOL     -0.609558
     76 H29        -2.0340   -3.9630    1.1380 hn        1 MOL      0.245639
     77 H30        -0.1370   -5.2160    3.0790 h1        1 MOL      0.093840
     78 H31         1.1130   -6.3880    1.2370 h1        1 MOL     -0.068528
     79 H32         0.4240   -5.0770   -0.4620 ho        1 MOL      0.397687
     80 H33        -0.5470   -7.2910    2.6680 hc        1 MOL      0.145728
     81 H34        -1.7270   -7.1760    1.3910 hc        1 MOL      0.145728
     82 H35        -0.3290   -8.2430    1.0860 hc        1 MOL      0.145728
     83 N9          1.8930   -3.7890    2.5050 n         1 MOL     -0.277947
     84 C26         2.9120   -2.7340    2.3300 c3        1 MOL     -0.042614
     85 C27         3.8120   -3.1020    1.1120 c         1 MOL      0.328812
     86 O15         4.5870   -4.0110    1.1030 o         1 MOL     -0.537453
     87 C28         3.7330   -2.4970    3.5480 c3        1 MOL      0.257456
     88 C29         4.7130   -1.3000    3.2460 c3        1 MOL      0.106463
     89 C30         2.8650   -2.1750    4.8380 c3        1 MOL     -0.381534
     90 C31         5.4780   -0.7520    4.5160 c3        1 MOL     -0.407421
     91 H36         2.1030   -4.4360    3.2450 hn        1 MOL      0.261873
     92 H37         2.4650   -1.7440    2.2130 h1        1 MOL      0.045287
     93 H38         4.3970   -3.3060    3.8400 hc        1 MOL     -0.039485
     94 H39         4.1910   -0.4410    2.8410 hc        1 MOL      0.031860
     95 H40         5.4730   -1.6650    2.5490 hc        1 MOL      0.031860
     96 H41         2.2400   -3.0540    4.9960 hc        1 MOL      0.085924
     97 H42         3.5590   -1.9830    5.6550 hc        1 MOL      0.085924
     98 H43         2.2410   -1.2790    4.7870 hc        1 MOL      0.085924
     99 H44         6.3090   -0.0910    4.2710 hc        1 MOL      0.094890
    100 H45         4.8010   -0.2570    5.2150 hc        1 MOL      0.094890
    101 H46         5.9990   -1.6230    4.9000 hc        1 MOL      0.094890
    102 N10         3.6750   -2.3270    0.0430 n         1 MOL     -0.042359
    103 C32         4.3910   -2.5860   -1.2390 c3        1 MOL      0.029310
    104 C33         5.4080   -1.5540   -1.6220 c         1 MOL      0.502804
    105 O16         5.9120   -1.7010   -2.7150 o         1 MOL     -0.537406
    106 C34         3.2530   -2.7370   -2.2630 c3        1 MOL     -0.188515
    107 C35         2.0910   -3.7210   -1.8490 c         1 MOL      0.618920
    108 O17         2.3590   -4.8080   -1.2430 o         1 MOL     -0.625000
    109 O18         0.8900   -3.4250   -2.0160 o         1 MOL     -0.625000
    110 H47         2.9180   -1.6710   -0.0730 hn        1 MOL      0.020331
    111 H48         4.8880   -3.5520   -1.2360 h1        1 MOL      0.100848
    112 H49         3.6960   -3.0840   -3.1870 hc        1 MOL      0.047280
    113 H50         2.8340   -1.7420   -2.4260 hc        1 MOL      0.047280
    114 N11         5.7780   -0.5520   -0.7880 n         1 MOL     -0.384080
    115 C36         6.8220    0.4090   -1.1920 c3        1 MOL      0.245680
    116 C37         6.6090    1.6930   -0.3820 c         1 MOL      0.243126
    117 O19         6.2600    1.6090    0.7740 o         1 MOL     -0.481076
    118 C38         8.1760   -0.2490   -0.9300 c3        1 MOL     -0.259151
    119 C39         9.3110    0.7020   -1.3330 ca        1 MOL      0.084534
    120 C40         9.7950    1.6060   -0.3390 ca        1 MOL     -0.164101
    121 C41         9.9080    0.7370   -2.6460 ca        1 MOL     -0.164101
    122 C42        10.6640    2.6600   -0.7200 ca        1 MOL     -0.144251
    123 C43        10.7910    1.7860   -3.0090 ca        1 MOL     -0.144251
    124 C44        11.1460    2.7850   -2.0700 ca        1 MOL     -0.081347
    125 H51         5.3670   -0.4880    0.1370 hn        1 MOL      0.146229
    126 H52         6.7330    0.5680   -2.2750 h1        1 MOL      0.004926
    127 H53         8.1840   -1.1110   -1.5960 hc        1 MOL      0.112342
    128 H54         8.2690   -0.6190    0.0890 hc        1 MOL      0.112342
    129 H55         9.4310    1.6700    0.6730 ha        1 MOL      0.135315
    130 H56         9.6650   -0.0250   -3.3730 ha        1 MOL      0.135315
    131 H57        10.9210    3.4210    0.0030 ha        1 MOL      0.114514
    132 H58        11.1090    1.9370   -4.0290 ha        1 MOL      0.114514
    133 H59        11.8470    3.5480   -2.3760 ha        1 MOL      0.093620
    134 N12         6.6540    2.8760   -1.0090 n         1 MOL      0.180200
    135 C45         6.6910    4.1460   -0.3550 c3        1 MOL     -0.171364
    136 C46         5.4310    4.6900    0.2280 c         1 MOL      0.463800
    137 O20         5.3220    5.8190    0.7890 o         1 MOL     -0.543316
    138 C47         7.3910    5.1760   -1.2740 c3        1 MOL      0.081381
    139 C48         6.9970    4.6700   -2.6100 c3        1 MOL     -0.175345
    140 C49         6.8750    3.1190   -2.4290 c3        1 MOL     -0.071866
    141 H60         7.3720    4.0440    0.4830 h1        1 MOL      0.077728
    142 H61         7.1140    6.2190   -1.1410 hc        1 MOL      0.010584
    143 H62         8.4720    5.0760   -1.0920 hc        1 MOL      0.010584
    144 H63         5.9860    5.0450   -2.7820 hc        1 MOL      0.069360
    145 H64         7.7810    4.8230   -3.3490 hc        1 MOL      0.069360
    146 H65         6.0150    2.8180   -3.0270 h1        1 MOL      0.051855
    147 H66         7.7660    2.5570   -2.7240 h1        1 MOL      0.051855
    148 N13         4.3870    3.8350    0.2490 n         1 MOL     -0.163786
    149 C50         3.1780    4.2060    0.9330 c3        1 MOL     -0.216108
    150 C51         3.2810    4.2490    2.4780 c         1 MOL      0.552051
    151 O21         2.3970    4.8190    3.0960 o         1 MOL     -0.517864
    152 C52         2.0780    3.1890    0.4320 c3        1 MOL      0.015310
    153 C53         2.3810    1.7470    0.7690 c3        1 MOL      0.050086
    154 C54         1.3790    0.6670    0.2160 c         1 MOL      0.660029
    155 O22         1.8220   -0.0280   -0.7040 o         1 MOL     -0.689118
    156 O23         0.1840    0.6320    0.4350 o         1 MOL     -0.689118
    157 H67         4.3580    3.0110   -0.3390 hn        1 MOL      0.140502
    158 H68         2.8910    5.2150    0.6340 h1        1 MOL      0.133761
    159 H69         1.9120    3.3520   -0.6360 hc        1 MOL      0.029516
    160 H70         1.1590    3.4570    0.9330 hc        1 MOL      0.029516
    161 H71         2.4550    1.5410    1.8370 hc        1 MOL     -0.037393
    162 H72         3.3830    1.4630    0.4340 hc        1 MOL     -0.037393
    163 N14         4.4440    3.7740    3.0390 n         1 MOL     -0.249086
    164 C55         4.8240    4.0740    4.4220 c3        1 MOL     -0.097807
    165 H73         3.9410    4.3830    4.9820 h1        1 MOL      0.062975
    166 H74         5.2510    3.1830    4.8830 h1        1 MOL      0.062975
    167 H75         5.5600    4.8770    4.4320 h1        1 MOL      0.062975
    168 H76         5.0490    3.2380    2.4360 hn        1 MOL      0.197748
    169 Ca1        -0.5340   -1.4370   -1.0200 Ca        1 MOL      1.754116
    170 O24         0.2810   -0.6820   -3.4180 oh        1 MOL     -0.943624
    171 H77         0.3280    0.2600   -3.5560 ho        1 MOL      0.441236
    172 H78         0.7500   -1.0550   -4.1640 ho        1 MOL      0.441236
    173 O25        -2.0890   -1.6220    1.0510 oh        1 MOL     -0.943624
    174 H79        -1.9830   -1.0400    1.7970 ho        1 MOL      0.441236
    175 H80        -3.0420   -1.7380    0.9770 ho        1 MOL      0.441236
@<TRIPOS>BOND
     1    1    2 1   
     2    1    4 1   
     3    1    5 1   
     4    1    6 1   
     5    2    3 2   
     6    2    7 1   
     7    7    8 1   
     8    7   15 1   
     9    8    9 1   
    10    8   11 1   
    11    8   16 1   
    12    9   10 2   
    13    9   19 1   
    14   11   12 1   
    15   11   17 1   
    16   11   18 1   
    17   12   13 1   
    18   12   14 1   
    19   19   20 1   
    20   19   24 1   
    21   20   21 1   
    22   20   23 1   
    23   20   25 1   
    24   21   22 2   
    25   21   29 1   
    26   23   26 1   
    27   23   27 1   
    28   23   28 1   
    29   29   30 1   
    30   29   37 1   
    31   30   31 1   
    32   30   33 1   
    33   30   38 1   
    34   31   32 2   
    35   31   41 1   
    36   33   34 1   
    37   33   39 1   
    38   33   40 1   
    39   34   35 1   
    40   34   36 1   
    41   41   42 1   
    42   41   45 1   
    43   42   43 1   
    44   42   46 1   
    45   42   47 1   
    46   43   44 2   
    47   43   48 1   
    48   48   49 1   
    49   48   56 1   
    50   49   50 1   
    51   49   52 1   
    52   49   57 1   
    53   50   51 2   
    54   50   62 1   
    55   52   53 1   
    56   52   58 1   
    57   52   59 1   
    58   53   54 1   
    59   53   55 2   
    60   54   60 1   
    61   54   61 1   
    62   62   63 1   
    63   62   66 1   
    64   63   64 1   
    65   63   67 1   
    66   63   68 1   
    67   64   65 2   
    68   64   69 1   
    69   69   70 1   
    70   69   76 1   
    71   70   71 1   
    72   70   73 1   
    73   70   77 1   
    74   71   72 2   
    75   71   83 1   
    76   73   74 1   
    77   73   75 1   
    78   73   78 1   
    79   74   80 1   
    80   74   81 1   
    81   74   82 1   
    82   75   79 1   
    83   83   84 1   
    84   83   91 1   
    85   84   85 1   
    86   84   87 1   
    87   84   92 1   
    88   85   86 2   
    89   85  102 1   
    90   87   88 1   
    91   87   89 1   
    92   87   93 1   
    93   88   90 1   
    94   88   94 1   
    95   88   95 1   
    96   89   96 1   
    97   89   97 1   
    98   89   98 1   
    99   90   99 1   
   100   90  100 1   
   101   90  101 1   
   102  102  103 1   
   103  102  110 1   
   104  103  104 1   
   105  103  106 1   
   106  103  111 1   
   107  104  105 2   
   108  104  114 1   
   109  106  107 1   
   110  106  112 1   
   111  106  113 1   
   112  107  108 1   
   113  107  109 1   
   114  114  115 1   
   115  114  125 1   
   116  115  116 1   
   117  115  118 1   
   118  115  126 1   
   119  116  117 2   
   120  116  134 1   
   121  118  119 1   
   122  118  127 1   
   123  118  128 1   
   124  119  120 ar  
   125  119  121 ar  
   126  120  122 ar  
   127  120  129 1   
   128  121  123 ar  
   129  121  130 1   
   130  122  124 ar  
   131  122  131 1   
   132  123  124 ar  
   133  123  132 1   
   134  124  133 1   
   135  134  135 1   
   136  134  140 1   
   137  135  136 1   
   138  135  138 1   
   139  135  141 1   
   140  136  137 2   
   141  136  148 1   
   142  138  139 1   
   143  138  142 1   
   144  138  143 1   
   145  139  140 1   
   146  139  144 1   
   147  139  145 1   
   148  140  146 1   
   149  140  147 1   
   150  148  149 1   
   151  148  157 1   
   152  149  150 1   
   153  149  152 1   
   154  149  158 1   
   155  150  151 2   
   156  150  163 1   
   157  152  153 1   
   158  152  159 1   
   159  152  160 1   
   160  153  154 1   
   161  153  161 1   
   162  153  162 1   
   163  154  155 1   
   164  154  156 1   
   165  163  164 1   
   166  163  168 1   
   167  164  165 1   
   168  164  166 1   
   169  164  167 1   
   170  170  171 1   
   171  170  172 1   
   172  173  174 1   
   173  173  175 1   
@<TRIPOS>SUBSTRUCTURE
     1 MOL         1 TEMP              0 ****  ****    0 ROOT
