@<TRIPOS>MOLECULE
MOL
  189   185     1     0     0
SMALL
resp


@<TRIPOS>ATOM
      1 C1          4.2600    4.5030   -3.0880 c3        1 MOL     -0.425454
      2 C2          4.9560    3.6410   -1.9590 c         1 MOL      0.733434
      3 O1          4.2780    3.1840   -1.0310 o         1 MOL     -0.628685
      4 H1          3.2720    4.0930   -3.3000 hc        1 MOL      0.113018
      5 H2          4.1610    5.5340   -2.7490 hc        1 MOL      0.113018
      6 H3          4.8650    4.4740   -3.9940 hc        1 MOL      0.113018
      7 N1          6.3050    3.3610   -2.0320 n         1 MOL     -0.659561
      8 C3          7.0340    2.1800   -1.6560 c3        1 MOL      0.262255
      9 C4          6.0650    0.9310   -1.5920 c         1 MOL      0.394508
     10 O2          5.3950    0.5740   -0.5790 o         1 MOL     -0.567509
     11 C5          7.8010    2.3690   -0.3180 c3        1 MOL     -0.151591
     12 C6          7.1300    3.3200    0.6360 c         1 MOL      0.748664
     13 O3          6.1720    2.9120    1.3850 o         1 MOL     -0.731969
     14 O4          7.4830    4.5270    0.6850 o         1 MOL     -0.731969
     15 H4          6.7990    3.9390   -2.6990 hn        1 MOL      0.317261
     16 H5          7.7330    1.9030   -2.4450 h1        1 MOL      0.017908
     17 H6          8.8570    2.5450   -0.5280 hc        1 MOL      0.028303
     18 H7          7.7650    1.3680    0.1050 hc        1 MOL      0.028303
     19 N2          5.7280    0.4030   -2.7870 n         1 MOL     -0.564816
     20 C7          4.9120   -0.8150   -2.9900 c3        1 MOL      0.307560
     21 C8          5.6180   -2.0080   -2.4390 c         1 MOL      0.383591
     22 O5          6.0190   -2.8290   -3.2670 o         1 MOL     -0.568936
     23 C9          3.4290   -0.6650   -2.5100 c3        1 MOL      0.238049
     24 C10         2.7020   -1.9410   -2.9910 c3        1 MOL     -0.106871
     25 C11         2.7500    0.6210   -3.0830 c3        1 MOL     -0.400989
     26 C12         2.3980   -2.2340   -4.4540 c3        1 MOL     -0.540715
     27 H8          6.2120    0.8720   -3.5400 hn        1 MOL      0.283344
     28 H9          4.9950   -0.9840   -4.0630 h1        1 MOL     -0.001037
     29 H10         3.4110   -0.6410   -1.4200 hc        1 MOL     -0.068590
     30 H11         1.7300   -1.7040   -2.5570 hc        1 MOL      0.095635
     31 H12         3.2160   -2.7920   -2.5590 hc        1 MOL      0.095635
     32 H13         3.0180    0.8360   -4.1110 hc        1 MOL      0.096872
     33 H14         1.6740    0.4550   -3.0380 hc        1 MOL      0.096872
     34 H15         2.9030    1.4580   -2.3980 hc        1 MOL      0.096872
     35 H16         1.8880   -3.1860   -4.4940 hc        1 MOL      0.130638
     36 H17         1.7670   -1.4520   -4.8770 hc        1 MOL      0.130638
     37 H18         3.3610   -2.3100   -4.9620 hc        1 MOL      0.130638
     38 N3          5.6940   -2.2130   -1.0680 n         1 MOL     -0.194857
     39 C13         6.2800   -3.4200   -0.3800 c3        1 MOL      0.008233
     40 C14         5.3530   -4.6510   -0.4670 c         1 MOL      0.534311
     41 O6          5.8240   -5.7500   -0.7790 o         1 MOL     -0.584738
     42 C15         6.6340   -3.0980    1.1630 c3        1 MOL     -0.233425
     43 C16         7.4910   -1.8440    1.2320 c         1 MOL      0.776354
     44 O7          7.4580   -1.0310    2.2250 o         1 MOL     -0.707357
     45 O8          8.3900   -1.7280    0.4120 o         1 MOL     -0.707357
     46 H19         5.3620   -1.3900   -0.5830 hn        1 MOL      0.272399
     47 H20         7.2600   -3.5970   -0.8130 h1        1 MOL      0.067102
     48 H21         7.1100   -4.0010    1.5280 hc        1 MOL      0.059227
     49 H22         5.6840   -2.9950    1.6910 hc        1 MOL      0.059227
     50 N4          4.0430   -4.5510   -0.2550 n         1 MOL     -0.494531
     51 C17         3.1390   -3.4900    0.2670 c3        1 MOL      0.224175
     52 C18         2.0260   -4.1320    1.1370 c         1 MOL      0.448953
     53 O9          1.6240   -5.2710    0.8770 o         1 MOL     -0.585801
     54 H23         3.5900   -5.4010   -0.5630 hn        1 MOL      0.278375
     55 H24         2.5720   -2.8950   -0.4450 h1        1 MOL      0.032018
     56 H25         3.7690   -2.8450    0.8830 h1        1 MOL      0.032018
     57 N5          1.4930   -3.4880    2.1810 n         1 MOL     -0.413741
     58 C19         1.8080   -2.2320    2.8050 c3        1 MOL      0.209399
     59 C20         1.9300   -1.1220    1.7380 c         1 MOL      0.125526
     60 O10         3.0050   -0.6120    1.4430 o         1 MOL     -0.656339
     61 C21         2.9890   -2.3700    3.7140 c3        1 MOL     -0.111117
     62 C22         3.1290   -1.1720    4.6570 c         1 MOL      0.691264
     63 O11         4.2660   -1.0360    5.1590 o         1 MOL     -0.691952
     64 O12         2.1440   -0.4810    5.0110 o         1 MOL     -0.691952
     65 H26         0.7700   -4.0270    2.6510 hn        1 MOL      0.246917
     66 H27         0.9870   -2.0410    3.5000 h1        1 MOL      0.032683
     67 H28         3.9360   -2.5150    3.1960 hc        1 MOL      0.022249
     68 H29         2.8150   -3.2930    4.2620 hc        1 MOL      0.022249
     69 N6          0.9110   -0.6690    1.0280 n         1 MOL     -0.076622
     70 C23        -0.4300   -1.2280    1.1190 c3        1 MOL     -0.272915
     71 C24        -0.7020   -2.2850    0.1090 c         1 MOL      0.628429
     72 O13        -0.0010   -2.3680   -0.8630 o         1 MOL     -0.538353
     73 H30         1.1610   -0.1280    0.2180 hn        1 MOL      0.343943
     74 H31        -1.1860   -0.4460    1.0340 h1        1 MOL      0.110896
     75 H32        -0.5240   -1.6930    2.0970 h1        1 MOL      0.110896
     76 N7         -1.6830   -3.1710    0.4170 n         1 MOL     -0.612963
     77 C25        -2.0780   -4.3220   -0.3100 c3        1 MOL      0.101590
     78 C26        -2.8870   -4.0450   -1.5720 c         1 MOL      0.308492
     79 O14        -3.6680   -4.9010   -1.9350 o         1 MOL     -0.495402
     80 C27        -2.7200   -5.2310    0.7600 c3        1 MOL      0.132966
     81 C28        -1.6190   -5.6790    1.7440 c3        1 MOL     -0.293056
     82 C29        -2.2280   -6.5820    2.7600 c         1 MOL      0.698725
     83 N8         -1.3650   -7.2040    3.5620 n         1 MOL     -0.837707
     84 O15        -3.4460   -6.7930    2.8630 o         1 MOL     -0.581924
     85 H33        -2.1430   -2.9590    1.2850 hn        1 MOL      0.308325
     86 H34        -1.1790   -4.8960   -0.5350 h1        1 MOL      0.114848
     87 H35        -3.1000   -6.0910    0.2070 hc        1 MOL     -0.000265
     88 H36        -3.5500   -4.7460    1.2820 hc        1 MOL     -0.000265
     89 H37        -1.2270   -4.8790    2.3690 hc        1 MOL      0.104172
     90 H38        -0.8440   -6.2080    1.1820 hc        1 MOL      0.104172
     91 H39        -0.3980   -6.9040    3.5090 hn        1 MOL      0.370895
     92 H40        -1.6540   -7.9340    4.1950 hn        1 MOL      0.370895
     93 N9         -2.6520   -2.9060   -2.1660 n         1 MOL     -0.030463
     94 C30        -3.1930   -2.5410   -3.4560 c3        1 MOL     -0.128026
     95 C31        -4.6190   -1.9510   -3.4310 c         1 MOL      0.485057
     96 O16        -5.1580   -1.8430   -4.5230 o         1 MOL     -0.532965
     97 C32        -2.2600   -1.5890   -4.1980 c3        1 MOL      0.111631
     98 C33        -1.1010   -2.4250   -4.8600 c3        1 MOL     -0.118563
     99 C34        -1.7110   -0.4130   -3.3740 c3        1 MOL     -0.118563
    100 H41        -1.9730   -2.2460   -1.8380 hn        1 MOL      0.064860
    101 H42        -3.2490   -3.4510   -4.0620 h1        1 MOL      0.123240
    102 H43        -2.7460   -1.1270   -5.0620 hc        1 MOL      0.035942
    103 H44        -0.5260   -1.6900   -5.4280 hc        1 MOL      0.028728
    104 H45        -0.4370   -2.9580   -4.1800 hc        1 MOL      0.028728
    105 H46        -1.5740   -3.1120   -5.5720 hc        1 MOL      0.028728
    106 H47        -0.9260   -0.7460   -2.7010 hc        1 MOL      0.028728
    107 H48        -1.3890    0.2820   -4.1440 hc        1 MOL      0.028728
    108 H49        -2.5420   -0.0060   -2.7970 hc        1 MOL      0.028728
    109 N10        -5.2550   -1.5490   -2.2840 n         1 MOL     -0.314764
    110 C35        -6.6790   -1.1970   -2.1380 c3        1 MOL      0.110202
    111 C36        -6.8940    0.3120   -1.8350 c         1 MOL      0.445025
    112 O17        -7.9150    0.8930   -2.0430 o         1 MOL     -0.533807
    113 C37        -7.3150   -2.0190   -1.0360 c3        1 MOL     -0.338792
    114 C38        -7.1310   -3.4620   -1.2110 c         1 MOL      0.677682
    115 N11        -6.6270   -4.1300   -0.1560 n         1 MOL     -0.875256
    116 O18        -7.4590   -4.0730   -2.2290 o         1 MOL     -0.538648
    117 H50        -4.6700   -1.4630   -1.4640 hn        1 MOL      0.199648
    118 H51        -7.1630   -1.3980   -3.0990 h1        1 MOL      0.087117
    119 H52        -8.3710   -1.7540   -0.9710 hc        1 MOL      0.129208
    120 H53        -6.7710   -1.6980   -0.1470 hc        1 MOL      0.129208
    121 H54        -6.6330   -3.7540    0.7780 hn        1 MOL      0.389138
    122 H55        -6.4610   -5.1140   -0.2910 hn        1 MOL      0.389138
    123 N12        -6.0040    0.8830   -1.0680 n         1 MOL     -0.437017
    124 C39        -6.1190    2.3140   -0.6500 c3        1 MOL      0.328251
    125 C40        -4.7470    2.8430   -0.1050 c         1 MOL      0.195490
    126 O19        -3.7970    2.1090    0.0480 o         1 MOL     -0.372235
    127 C41        -7.2350    2.5170    0.3960 c3        1 MOL     -0.241372
    128 C42        -7.3410    1.3800    1.3530 ca        1 MOL      0.098468
    129 C43        -8.3030    0.3420    1.1790 ca        1 MOL     -0.153221
    130 C44        -6.4940    1.3750    2.5320 ca        1 MOL     -0.153221
    131 C45        -8.3800   -0.7380    2.0830 ca        1 MOL     -0.290769
    132 C46        -6.6660    0.3230    3.4650 ca        1 MOL     -0.290769
    133 C47        -7.6320   -0.7020    3.2710 ca        1 MOL      0.352936
    134 O20        -7.7260   -1.7850    4.1220 oh        1 MOL     -0.601914
    135 H56        -5.2060    0.3520   -0.7470 hn        1 MOL      0.248923
    136 H57        -6.3530    2.9870   -1.4710 h1        1 MOL      0.037823
    137 H58        -8.2350    2.6120   -0.0420 hc        1 MOL      0.069238
    138 H59        -7.0650    3.4050    0.9960 hc        1 MOL      0.069238
    139 H60        -8.9420    0.5220    0.3360 ha        1 MOL      0.155111
    140 H61        -5.6570    2.0520    2.6280 ha        1 MOL      0.155111
    141 H62        -9.0540   -1.5730    1.9330 ha        1 MOL      0.160133
    142 H63        -5.9100    0.2800    4.2440 ha        1 MOL      0.160133
    143 H64        -7.4060   -1.7350    5.0260 ho        1 MOL      0.437149
    144 N13        -4.6780    4.1530    0.2080 n         1 MOL     -0.432002
    145 C48        -3.5910    4.8710    0.8990 c3        1 MOL      0.254749
    146 C49        -2.3140    5.1360    0.1920 c         1 MOL      0.200540
    147 O21        -1.6450    6.1870    0.3100 o         1 MOL     -0.484916
    148 C50        -3.4500    4.4920    2.3620 c3        1 MOL     -0.311613
    149 C51        -2.5470    5.5240    3.1450 c3        1 MOL     -0.277208
    150 C52        -2.6640    5.3710    4.6970 c         1 MOL      0.745958
    151 O22        -2.2890    4.3430    5.1940 o         1 MOL     -0.743508
    152 O23        -3.0940    6.3810    5.3030 o         1 MOL     -0.743508
    153 H65        -5.4600    4.7640    0.0420 hn        1 MOL      0.261960
    154 H66        -3.8460    5.9280    0.9480 h1        1 MOL      0.032741
    155 H67        -2.9470    3.5370    2.5010 hc        1 MOL      0.141275
    156 H68        -4.4680    4.5710    2.7720 hc        1 MOL      0.141275
    157 H69        -2.8500    6.5340    2.8620 hc        1 MOL      0.082050
    158 H70        -1.5020    5.4240    2.8140 hc        1 MOL      0.082050
    159 N14        -1.9410    4.1630   -0.6220 n         1 MOL     -0.131752
    160 C53        -0.9360    4.4200   -1.6150 c3        1 MOL     -0.181134
    161 C54        -1.4640    5.2770   -2.7280 c         1 MOL      0.528380
    162 O24        -0.5590    5.8260   -3.4650 o         1 MOL     -0.562035
    163 C55        -0.6110    3.0270   -2.1360 c3        1 MOL     -0.052731
    164 C56        -0.2960    1.9630   -1.0980 c3        1 MOL      1.178323
    165 C57         0.8750    2.2820   -0.2200 c         1 MOL      0.243607
    166 O25         1.8560    1.5410   -0.1720 o         1 MOL     -0.575638
    167 O26         0.7290    3.2690    0.5260 o         1 MOL     -0.575638
    168 H71        -2.4200    3.2810   -0.5080 hn        1 MOL      0.170802
    169 H72        -0.0240    4.8330   -1.2010 h1        1 MOL      0.177433
    170 H73         0.3170    3.0290   -2.6950 hc        1 MOL     -0.071965
    171 H74        -1.4070    2.5940   -2.7270 hc        1 MOL     -0.071965
    172 H75        -0.0780    1.0530   -1.6700 hc        1 MOL     -0.340719
    173 H76        -1.1010    1.6910   -0.4170 hc        1 MOL     -0.340719
    174 N15        -2.7540    5.5540   -2.8860 n         1 MOL     -0.209291
    175 C58        -3.2650    6.3380   -3.9840 c3        1 MOL     -0.247668
    176 H77        -4.3050    6.0720   -4.1680 h1        1 MOL      0.096086
    177 H78        -3.2000    7.3970   -3.7360 h1        1 MOL      0.096086
    178 H79        -2.6750    6.1380   -4.8790 h1        1 MOL      0.096086
    179 H80        -3.4650    5.2640   -2.2330 hn        1 MOL      0.202846
    180 Ca1         3.8790    1.9550    1.2540 Ca        1 MOL      1.788576
    181 O27         5.4400    0.7890    2.9820 oh        1 MOL     -0.863019
    182 H81         5.9890    0.0270    2.7840 ho        1 MOL      0.416420
    183 H82         5.0890    0.5960    3.8470 ho        1 MOL      0.416420
    184 O28         2.3990    1.7960    3.5440 oh        1 MOL     -0.863019
    185 H83         2.3090    2.5290    4.1420 ho        1 MOL      0.416420
    186 H84         2.1130    1.0320    4.0510 ho        1 MOL      0.416420
    187 O29         3.5980    4.4970    1.9290 oh        1 MOL     -0.863019
    188 H85         2.8170    4.9640    1.6240 ho        1 MOL      0.416420
    189 H86         4.3370    4.9910    1.5700 ho        1 MOL      0.416420
@<TRIPOS>BOND
     1    1    2 1   
     2    1    4 1   
     3    1    5 1   
     4    1    6 1   
     5    2    3 2   
     6    2    7 1   
     7    7    8 1   
     8    7   15 1   
     9    8    9 1   
    10    8   11 1   
    11    8   16 1   
    12    9   10 2   
    13    9   19 1   
    14   11   12 1   
    15   11   17 1   
    16   11   18 1   
    17   12   13 1   
    18   12   14 1   
    19   19   20 1   
    20   19   27 1   
    21   20   21 1   
    22   20   23 1   
    23   20   28 1   
    24   21   22 2   
    25   21   38 1   
    26   23   24 1   
    27   23   25 1   
    28   23   29 1   
    29   24   26 1   
    30   24   30 1   
    31   24   31 1   
    32   25   32 1   
    33   25   33 1   
    34   25   34 1   
    35   26   35 1   
    36   26   36 1   
    37   26   37 1   
    38   38   39 1   
    39   38   46 1   
    40   39   40 1   
    41   39   42 1   
    42   39   47 1   
    43   40   41 2   
    44   40   50 1   
    45   42   43 1   
    46   42   48 1   
    47   42   49 1   
    48   43   44 1   
    49   43   45 1   
    50   50   51 1   
    51   50   54 1   
    52   51   52 1   
    53   51   55 1   
    54   51   56 1   
    55   52   53 2   
    56   52   57 1   
    57   57   58 1   
    58   57   65 1   
    59   58   59 1   
    60   58   61 1   
    61   58   66 1   
    62   59   60 2   
    63   59   69 1   
    64   61   62 1   
    65   61   67 1   
    66   61   68 1   
    67   62   63 1   
    68   62   64 1   
    69   69   70 1   
    70   69   73 1   
    71   70   71 1   
    72   70   74 1   
    73   70   75 1   
    74   71   72 2   
    75   71   76 1   
    76   76   77 1   
    77   76   85 1   
    78   77   78 1   
    79   77   80 1   
    80   77   86 1   
    81   78   79 2   
    82   78   93 1   
    83   80   81 1   
    84   80   87 1   
    85   80   88 1   
    86   81   82 1   
    87   81   89 1   
    88   81   90 1   
    89   82   83 1   
    90   82   84 2   
    91   83   91 1   
    92   83   92 1   
    93   93   94 1   
    94   93  100 1   
    95   94   95 1   
    96   94   97 1   
    97   94  101 1   
    98   95   96 2   
    99   95  109 1   
   100   97   98 1   
   101   97   99 1   
   102   97  102 1   
   103   98  103 1   
   104   98  104 1   
   105   98  105 1   
   106   99  106 1   
   107   99  107 1   
   108   99  108 1   
   109  109  110 1   
   110  109  117 1   
   111  110  111 1   
   112  110  113 1   
   113  110  118 1   
   114  111  112 2   
   115  111  123 1   
   116  113  114 1   
   117  113  119 1   
   118  113  120 1   
   119  114  115 1   
   120  114  116 2   
   121  115  121 1   
   122  115  122 1   
   123  123  124 1   
   124  123  135 1   
   125  124  125 1   
   126  124  127 1   
   127  124  136 1   
   128  125  126 2   
   129  125  144 1   
   130  127  128 1   
   131  127  137 1   
   132  127  138 1   
   133  128  129 ar  
   134  128  130 ar  
   135  129  131 ar  
   136  129  139 1   
   137  130  132 ar  
   138  130  140 1   
   139  131  133 ar  
   140  131  141 1   
   141  132  133 ar  
   142  132  142 1   
   143  133  134 1   
   144  134  143 1   
   145  144  145 1   
   146  144  153 1   
   147  145  146 1   
   148  145  148 1   
   149  145  154 1   
   150  146  147 2   
   151  146  159 1   
   152  148  149 1   
   153  148  155 1   
   154  148  156 1   
   155  149  150 1   
   156  149  157 1   
   157  149  158 1   
   158  150  151 1   
   159  150  152 1   
   160  159  160 1   
   161  159  168 1   
   162  160  161 1   
   163  160  163 1   
   164  160  169 1   
   165  161  162 2   
   166  161  174 1   
   167  163  164 1   
   168  163  170 1   
   169  163  171 1   
   170  164  165 1   
   171  164  172 1   
   172  164  173 1   
   173  165  166 1   
   174  165  167 1   
   175  174  175 1   
   176  174  179 1   
   177  175  176 1   
   178  175  177 1   
   179  175  178 1   
   180  181  182 1   
   181  181  183 1   
   182  184  185 1   
   183  184  186 1   
   184  187  188 1   
   185  187  189 1   
@<TRIPOS>SUBSTRUCTURE
     1 MOL         1 TEMP              0 ****  ****    0 ROOT
