@<TRIPOS>MOLECULE
MOL
  188   182     1     0     0
SMALL
resp


@<TRIPOS>ATOM
      1 C1          7.7600    5.3460    2.1790 c3        1 MOL     -0.413705
      2 C2          8.7910    4.2260    2.2770 c         1 MOL      0.766942
      3 O1          8.8670    3.5820    3.3210 o         1 MOL     -0.602283
      4 H1          6.8520    5.0500    2.7040 hc        1 MOL      0.101460
      5 H2          8.1620    6.2520    2.6310 hc        1 MOL      0.101460
      6 H3          7.5270    5.5350    1.1300 hc        1 MOL      0.101460
      7 N1          9.3660    3.8500    1.1440 n         1 MOL     -0.652446
      8 C3         10.0850    2.5590    1.0450 c3        1 MOL      0.170282
      9 C4          9.2000    1.4370    0.4150 c         1 MOL      0.621662
     10 O2          8.6620    1.6090   -0.6890 o         1 MOL     -0.549424
     11 C5         11.2930    2.8490    0.0510 c3        1 MOL     -0.089120
     12 C6         12.1280    1.5420   -0.0660 c         1 MOL      0.612478
     13 O3         12.8820    1.2800    0.9550 o         1 MOL     -0.680448
     14 O4         11.9570    0.8770   -1.0710 o         1 MOL     -0.680448
     15 H4          9.0250    4.2370    0.2730 hn        1 MOL      0.328913
     16 H5         10.5610    2.3150    1.9890 h1        1 MOL      0.067279
     17 H6         11.9050    3.6490    0.4660 hc        1 MOL      0.018859
     18 H7         10.9110    3.1690   -0.9140 hc        1 MOL      0.018859
     19 N2          9.2360    0.3500    1.1970 n         1 MOL     -0.624251
     20 C7          8.4140   -0.8080    0.8570 c3        1 MOL      0.157549
     21 C8          7.0530   -0.7440    1.6000 c         1 MOL      0.566538
     22 O5          6.9220   -0.1440    2.6920 o         1 MOL     -0.497963
     23 C9          9.3080   -2.0830    1.1180 c3        1 MOL     -0.112875
     24 C10        10.7510   -2.1570    0.4680 c3        1 MOL      0.152783
     25 C11        10.7560   -2.2190   -1.0370 c3        1 MOL     -0.287162
     26 C12        12.2050   -2.5920   -1.5780 c3        1 MOL      0.233992
     27 N3         13.2230   -1.6080   -1.3540 n4        1 MOL     -0.324441
     28 H8          9.6420    0.3050    2.1250 hn        1 MOL      0.354500
     29 H9          8.2090   -0.7940   -0.2150 h1        1 MOL      0.051864
     30 H10         8.7470   -2.9170    0.6930 hc        1 MOL      0.023223
     31 H11         9.4770   -2.2630    2.1880 hc        1 MOL      0.023223
     32 H12        11.1770   -3.1120    0.7560 hc        1 MOL     -0.011347
     33 H13        11.4230   -1.3540    0.7780 hc        1 MOL     -0.011347
     34 H14        10.4930   -1.2310   -1.4290 hc        1 MOL      0.098196
     35 H15         9.9940   -2.9320   -1.3490 hc        1 MOL      0.098196
     36 H16        12.1760   -2.9880   -2.5950 hx        1 MOL      0.006913
     37 H17        12.6070   -3.4430   -1.0220 hx        1 MOL      0.006913
     38 H18        13.5490   -1.6790   -0.4020 hn        1 MOL      0.301698
     39 H19        13.9440   -1.8180   -2.0450 hn        1 MOL      0.301698
     40 H20        12.9570   -0.6640   -1.5910 hn        1 MOL      0.301698
     41 N4          6.0410   -1.3700    1.0130 n         1 MOL     -0.514432
     42 C13         4.6290   -1.4990    1.4450 c3        1 MOL      0.006150
     43 C14         3.9760   -2.9160    1.2780 c         1 MOL      0.480226
     44 O6          4.1470   -3.5240    0.1900 o         1 MOL     -0.445732
     45 C15         3.7760   -0.4220    0.7000 c3        1 MOL     -0.121927
     46 C16         2.3490   -0.3740    1.1400 c         1 MOL      0.335887
     47 O7          1.3680   -0.9810    0.5920 o         1 MOL     -0.544638
     48 O8          2.0420    0.3120    2.1120 o         1 MOL     -0.544638
     49 H21         6.2190   -1.8820    0.1660 hn        1 MOL      0.296717
     50 H22         4.6290   -1.2510    2.5060 h1        1 MOL      0.068878
     51 H23         3.7910   -0.7290   -0.3410 hc        1 MOL      0.094150
     52 H24         4.2100    0.5700    0.8740 hc        1 MOL      0.094150
     53 N5          3.2070   -3.4050    2.2370 n         1 MOL     -0.256433
     54 C17         2.6170   -4.7420    2.3560 c3        1 MOL     -0.147811
     55 C18         1.7550   -5.1250    1.1310 c         1 MOL      0.476210
     56 O9          1.9600   -6.2240    0.5570 o         1 MOL     -0.530884
     57 H25         3.0900   -2.8400    3.0740 hn        1 MOL      0.230624
     58 H26         2.0010   -4.5570    3.2320 h1        1 MOL      0.104454
     59 H27         3.3840   -5.5120    2.4760 h1        1 MOL      0.104454
     60 N6          0.8560   -4.2820    0.6670 n         1 MOL     -0.221833
     61 C19         0.1480   -4.3090   -0.6100 c3        1 MOL     -0.027695
     62 C20         0.6680   -3.3570   -1.6850 c         1 MOL      0.363435
     63 O10         0.0290   -3.1100   -2.6830 o         1 MOL     -0.489752
     64 C21        -1.3780   -4.3110   -0.2680 c3        1 MOL     -0.121677
     65 C22        -1.9910   -3.0240    0.2910 c         1 MOL      0.870130
     66 N7         -3.2280   -3.0460    0.7000 n         1 MOL     -0.967546
     67 O11        -1.3710   -2.0190    0.4320 o         1 MOL     -0.608435
     68 H28         0.7260   -3.4620    1.2500 hn        1 MOL      0.091914
     69 H29         0.3140   -5.2950   -1.0390 h1        1 MOL      0.134246
     70 H30        -1.5860   -5.1520    0.3910 hc        1 MOL      0.044731
     71 H31        -1.9400   -4.5170   -1.1820 hc        1 MOL      0.044731
     72 H32        -3.7680   -3.8890    0.5450 hn        1 MOL      0.397849
     73 H33        -3.5890   -2.1110    0.8410 hn        1 MOL      0.397849
     74 N8          1.9160   -2.9410   -1.6200 n         1 MOL     -0.014797
     75 C23         2.6250   -2.1670   -2.6270 c3        1 MOL     -0.254448
     76 C24         1.9940   -0.8010   -3.1190 c         1 MOL      0.538303
     77 O12         2.1410   -0.4380   -4.3100 o         1 MOL     -0.532233
     78 H34         2.3620   -3.0880   -0.7200 hn        1 MOL      0.064681
     79 H35         2.7410   -2.7410   -3.5490 h1        1 MOL      0.116221
     80 H36         3.6290   -1.9130   -2.2810 h1        1 MOL      0.116221
     81 N9          1.1900   -0.0680   -2.2790 n         1 MOL     -0.347981
     82 C25         0.5430    1.1850   -2.5930 c3        1 MOL      0.135150
     83 C26        -0.7860    1.3230   -1.7250 c         1 MOL      0.327382
     84 O13        -0.8860    0.9210   -0.5160 o         1 MOL     -0.482551
     85 C27         1.4240    2.4070   -2.4480 c3        1 MOL     -0.422246
     86 C28         0.7790    3.7200   -2.6230 ca        1 MOL      0.246534
     87 C29         0.4960    4.1300   -3.8950 ca        1 MOL     -0.212150
     88 C30         0.7520    4.5790   -1.4890 ca        1 MOL     -0.212150
     89 C31        -0.2230    5.3590   -4.0900 ca        1 MOL     -0.300604
     90 C32         0.2580    5.8800   -1.7070 ca        1 MOL     -0.300604
     91 C33        -0.3160    6.2420   -2.9700 ca        1 MOL      0.381092
     92 O14        -0.8310    7.5030   -3.1390 oh        1 MOL     -0.464753
     93 H37         0.9880   -0.4470   -1.3690 hn        1 MOL      0.283775
     94 H38         0.1830    1.1580   -3.6240 h1        1 MOL      0.060410
     95 H39         2.2440    2.3300   -3.1670 hc        1 MOL      0.137227
     96 H40         1.8850    2.3640   -1.4600 hc        1 MOL      0.137227
     97 H41         0.6710    3.4790   -4.7330 ha        1 MOL      0.173061
     98 H42         1.0480    4.2210   -0.5240 ha        1 MOL      0.173061
     99 H43        -0.5330    5.6650   -5.0890 ha        1 MOL      0.164909
    100 H44         0.2450    6.6110   -0.9000 ha        1 MOL      0.164909
    101 H45        -0.5620    8.0330   -2.3790 ho        1 MOL      0.348895
    102 N10        -1.8720    1.7470   -2.4050 n         1 MOL     -0.532650
    103 C34        -3.2280    1.5130   -1.8640 c3        1 MOL     -0.025026
    104 C35        -3.5550   -0.0190   -1.7830 c         1 MOL      0.388602
    105 O15        -4.0070   -0.4700   -0.7700 o         1 MOL     -0.510325
    106 C36        -4.3270    2.3330   -2.6610 c3        1 MOL      0.093641
    107 C37        -3.9660    3.7780   -3.0470 c3        1 MOL     -0.161067
    108 C38        -5.7410    2.1740   -1.9670 c3        1 MOL     -0.496380
    109 C39        -4.3930    4.7540   -1.9320 c3        1 MOL     -0.135860
    110 H46        -1.7850    2.0700   -3.3640 hn        1 MOL      0.324257
    111 H47        -3.1970    1.9360   -0.8620 h1        1 MOL      0.191710
    112 H48        -4.3340    1.8470   -3.6430 hc        1 MOL     -0.036879
    113 H49        -4.5190    4.1900   -3.8910 hc        1 MOL      0.098951
    114 H50        -2.9350    3.8640   -3.3770 hc        1 MOL      0.098951
    115 H51        -5.6610    2.4700   -0.9250 hc        1 MOL      0.151395
    116 H52        -6.4100    2.7920   -2.5840 hc        1 MOL      0.151395
    117 H53        -5.9880    1.1140   -2.0570 hc        1 MOL      0.151395
    118 H54        -4.1340    4.4340   -0.9220 hc        1 MOL      0.041841
    119 H55        -3.8470    5.6760   -2.1310 hc        1 MOL      0.041841
    120 H56        -5.4360    5.0750   -1.9860 hc        1 MOL      0.041841
    121 N11        -3.3380   -0.8260   -2.8170 n         1 MOL     -0.084248
    122 C40        -3.6910   -2.2070   -2.7780 c3        1 MOL     -0.414592
    123 C41        -5.2450   -2.4430   -2.6810 c         1 MOL      0.711941
    124 O16        -5.6860   -3.5040   -2.3020 o         1 MOL     -0.559944
    125 C42        -3.0730   -3.0650   -3.9010 c3        1 MOL      0.264399
    126 O17        -3.5980   -2.5520   -5.1320 oh        1 MOL     -0.639754
    127 H57        -3.0090   -0.3400   -3.6330 hn        1 MOL      0.276689
    128 H58        -3.2580   -2.6070   -1.8550 h1        1 MOL      0.128139
    129 H59        -3.3570   -4.1210   -3.8300 h1        1 MOL      0.039913
    130 H60        -1.9810   -3.0410   -3.9270 h1        1 MOL      0.039913
    131 H61        -3.8330   -3.3190   -5.6510 ho        1 MOL      0.413228
    132 N12        -6.0540   -1.4780   -3.0410 n         1 MOL     -0.535208
    133 C43        -7.5690   -1.3590   -2.9290 c3        1 MOL      0.262335
    134 C44        -8.1830   -1.8460   -1.5740 c         1 MOL      0.374147
    135 O18        -9.4450   -2.0070   -1.4700 o         1 MOL     -0.497061
    136 C45        -8.2270   -1.9630   -4.1650 c3        1 MOL     -0.472067
    137 H62        -5.5340   -0.7120   -3.4450 hn        1 MOL      0.287185
    138 H63        -7.8180   -0.3020   -3.0340 h1        1 MOL      0.076841
    139 H64        -7.7680   -1.5590   -5.0740 hc        1 MOL      0.137522
    140 H65        -8.1550   -3.0480   -4.1850 hc        1 MOL      0.137522
    141 H66        -9.2910   -1.7490   -4.1750 hc        1 MOL      0.137522
    142 N13        -7.3470   -1.9380   -0.5240 n         1 MOL     -0.349731
    143 C46        -7.8660   -1.8420    0.8430 c3        1 MOL      0.222095
    144 C47        -8.2950   -0.3690    1.2530 c         1 MOL      0.452563
    145 O19        -7.7650    0.6370    0.7190 o         1 MOL     -0.460153
    146 C48        -6.7600   -2.2480    1.8600 c3        1 MOL     -0.298784
    147 H67        -6.3730   -1.7320   -0.7010 hn        1 MOL      0.220147
    148 H68        -8.6730   -2.5490    1.0120 h1        1 MOL      0.037067
    149 H69        -7.1820   -2.1600    2.8660 hc        1 MOL      0.087810
    150 H70        -6.4950   -3.2890    1.6910 hc        1 MOL      0.087810
    151 H71        -5.8850   -1.6040    1.7590 hc        1 MOL      0.087810
    152 N14        -9.1960   -0.3040    2.2580 n         1 MOL     -0.505120
    153 C49        -9.7140    0.9290    2.8480 c3        1 MOL     -0.014926
    154 C50       -10.2180    1.9020    1.7350 c         1 MOL      0.373347
    155 O20       -10.2480    3.0840    1.9390 o         1 MOL     -0.477210
    156 C51        -8.6670    1.5530    3.6990 c3        1 MOL      0.382219
    157 C52        -8.5420    0.7290    4.9990 c3        1 MOL     -0.131434
    158 C53        -7.7420    1.4810    6.1230 c         1 MOL      0.569174
    159 O21        -6.5590    1.7430    5.8440 o         1 MOL     -0.645890
    160 O22        -8.3010    1.9950    7.1140 o         1 MOL     -0.645890
    161 H72        -9.5240   -1.2090    2.5530 hn        1 MOL      0.295775
    162 H73       -10.5860    0.8250    3.4870 h1        1 MOL      0.105750
    163 H74        -9.0630    2.5370    3.9600 hc        1 MOL     -0.063372
    164 H75        -7.6930    1.6260    3.2330 hc        1 MOL     -0.063372
    165 H76        -8.0690   -0.1940    4.6380 hc        1 MOL     -0.034464
    166 H77        -9.5460    0.5450    5.3840 hc        1 MOL     -0.034464
    167 N15       -10.5860    1.4370    0.5310 n         1 MOL     -0.256045
    168 C54       -10.8160    2.3260   -0.6660 c3        1 MOL     -0.213962
    169 H78       -11.5960    3.0510   -0.4340 h1        1 MOL      0.108738
    170 H79        -9.8930    2.8520   -0.9120 h1        1 MOL      0.108738
    171 H80       -11.1260    1.7190   -1.5160 h1        1 MOL      0.108738
    172 H81       -10.5300    0.4440    0.3430 hn        1 MOL      0.192221
    173 Ca1        -0.6100    0.0060    2.0480 Ca        1 MOL      1.659158
    174 O23         0.2460   -2.5210    2.8410 oh        1 MOL     -0.795469
    175 H82         1.0950   -2.3320    3.2330 ho        1 MOL      0.394168
    176 H83        -0.2140   -3.0350    3.4970 ho        1 MOL      0.394168
    177 O24         0.2680    0.5290    4.5960 oh        1 MOL     -0.795469
    178 H84        -0.0720   -0.1040    5.2320 ho        1 MOL      0.394168
    179 H85         0.2490    1.3640    5.0640 ho        1 MOL      0.394168
    180 O25        -2.3590   -1.0270    3.7540 oh        1 MOL     -0.795469
    181 H86        -3.1720   -0.7510    4.1770 ho        1 MOL      0.394168
    182 H87        -2.2430   -1.9360    4.0390 ho        1 MOL      0.394168
    183 O26        -2.7920    1.4300    1.8550 oh        1 MOL     -0.795469
    184 H88        -2.6460    2.3750    1.9570 ho        1 MOL      0.394168
    185 H89        -3.7170    1.3480    1.6530 ho        1 MOL      0.394168
    186 O27        -0.1430    2.5780    1.9870 oh        1 MOL     -0.795469
    187 H90         0.5140    3.2680    2.0820 ho        1 MOL      0.394168
    188 H91        -0.8410    2.9850    1.4730 ho        1 MOL      0.394168
@<TRIPOS>BOND
     1    1    2 1   
     2    1    4 1   
     3    1    5 1   
     4    1    6 1   
     5    2    3 2   
     6    2    7 1   
     7    7    8 1   
     8    7   15 1   
     9    8    9 1   
    10    8   11 1   
    11    8   16 1   
    12    9   10 2   
    13    9   19 1   
    14   11   12 1   
    15   11   17 1   
    16   11   18 1   
    17   12   13 1   
    18   12   14 1   
    19   19   20 1   
    20   19   28 1   
    21   20   21 1   
    22   20   23 1   
    23   20   29 1   
    24   21   22 2   
    25   21   41 1   
    26   23   24 1   
    27   23   30 1   
    28   23   31 1   
    29   24   25 1   
    30   24   32 1   
    31   24   33 1   
    32   25   26 1   
    33   25   34 1   
    34   25   35 1   
    35   26   27 1   
    36   26   36 1   
    37   26   37 1   
    38   27   38 1   
    39   27   39 1   
    40   27   40 1   
    41   41   42 1   
    42   41   49 1   
    43   42   43 1   
    44   42   45 1   
    45   42   50 1   
    46   43   44 2   
    47   43   53 1   
    48   45   46 1   
    49   45   51 1   
    50   45   52 1   
    51   46   47 1   
    52   46   48 1   
    53   53   54 1   
    54   53   57 1   
    55   54   55 1   
    56   54   58 1   
    57   54   59 1   
    58   55   56 2   
    59   55   60 1   
    60   60   61 1   
    61   60   68 1   
    62   61   62 1   
    63   61   64 1   
    64   61   69 1   
    65   62   63 2   
    66   62   74 1   
    67   64   65 1   
    68   64   70 1   
    69   64   71 1   
    70   65   66 1   
    71   65   67 2   
    72   66   72 1   
    73   66   73 1   
    74   74   75 1   
    75   74   78 1   
    76   75   76 1   
    77   75   79 1   
    78   75   80 1   
    79   76   77 2   
    80   76   81 1   
    81   81   82 1   
    82   81   93 1   
    83   82   83 1   
    84   82   85 1   
    85   82   94 1   
    86   83   84 2   
    87   83  102 1   
    88   85   86 1   
    89   85   95 1   
    90   85   96 1   
    91   86   87 ar  
    92   86   88 ar  
    93   87   89 ar  
    94   87   97 1   
    95   88   90 ar  
    96   88   98 1   
    97   89   91 ar  
    98   89   99 1   
    99   90   91 ar  
   100   90  100 1   
   101   91   92 1   
   102   92  101 1   
   103  102  103 1   
   104  102  110 1   
   105  103  104 1   
   106  103  106 1   
   107  103  111 1   
   108  104  105 2   
   109  104  121 1   
   110  106  107 1   
   111  106  108 1   
   112  106  112 1   
   113  107  109 1   
   114  107  113 1   
   115  107  114 1   
   116  108  115 1   
   117  108  116 1   
   118  108  117 1   
   119  109  118 1   
   120  109  119 1   
   121  109  120 1   
   122  121  122 1   
   123  121  127 1   
   124  122  123 1   
   125  122  125 1   
   126  122  128 1   
   127  123  124 2   
   128  123  132 1   
   129  125  126 1   
   130  125  129 1   
   131  125  130 1   
   132  126  131 1   
   133  132  133 1   
   134  132  137 1   
   135  133  134 1   
   136  133  136 1   
   137  133  138 1   
   138  134  135 2   
   139  134  142 1   
   140  136  139 1   
   141  136  140 1   
   142  136  141 1   
   143  142  143 1   
   144  142  147 1   
   145  143  144 1   
   146  143  146 1   
   147  143  148 1   
   148  144  145 2   
   149  144  152 1   
   150  146  149 1   
   151  146  150 1   
   152  146  151 1   
   153  152  153 1   
   154  152  161 1   
   155  153  154 1   
   156  153  156 1   
   157  153  162 1   
   158  154  155 2   
   159  154  167 1   
   160  156  157 1   
   161  156  163 1   
   162  156  164 1   
   163  157  158 1   
   164  157  165 1   
   165  157  166 1   
   166  158  159 1   
   167  158  160 1   
   168  167  168 1   
   169  167  172 1   
   170  168  169 1   
   171  168  170 1   
   172  168  171 1   
   173  174  175 1   
   174  174  176 1   
   175  177  178 1   
   176  177  179 1   
   177  180  181 1   
   178  180  182 1   
   179  183  184 1   
   180  183  185 1   
   181  186  187 1   
   182  186  188 1   
@<TRIPOS>SUBSTRUCTURE
     1 MOL         1 TEMP              0 ****  ****    0 ROOT
