@<TRIPOS>MOLECULE
MOL
  181   177     1     0     0
SMALL
resp


@<TRIPOS>ATOM
      1 C1          4.9610   -1.9180    2.8740 c3        1 MOL     -0.430673
      2 C2          6.2010   -1.1150    2.4400 c         1 MOL      0.838124
      3 O1          6.0200   -0.2410    1.5890 o         1 MOL     -0.618360
      4 H1          5.2330   -2.9670    2.9960 hc        1 MOL      0.090909
      5 H2          4.5870   -1.5270    3.8200 hc        1 MOL      0.090909
      6 H3          4.1860   -1.8310    2.1120 hc        1 MOL      0.090909
      7 N1          7.3610   -1.4800    2.9120 n         1 MOL     -0.654459
      8 C3          8.5880   -0.8310    2.4700 c3        1 MOL      0.131550
      9 C4          8.8010   -1.0600    0.9370 c         1 MOL      0.666521
     10 O2          8.6650   -2.1660    0.4050 o         1 MOL     -0.595891
     11 C5          9.8470   -1.3130    3.2380 c3        1 MOL     -0.128614
     12 C6         11.1750   -0.7940    2.6510 c         1 MOL      0.699778
     13 O3         12.1480   -1.5220    2.8010 o         1 MOL     -0.720233
     14 O4         11.1310    0.3020    2.1110 o         1 MOL     -0.720233
     15 H4          7.3820   -2.2830    3.5240 hn        1 MOL      0.313642
     16 H5          8.4040    0.2080    2.7420 h1        1 MOL      0.032026
     17 H6         10.0310   -2.3900    3.2420 hc        1 MOL      0.001556
     18 H7          9.7980   -0.9880    4.2840 hc        1 MOL      0.001556
     19 N2          8.9160    0.0350    0.1680 n         1 MOL     -0.448092
     20 C7          9.0580    0.0120   -1.3190 c3        1 MOL      0.177046
     21 C8          7.7830   -0.3080   -2.0720 c         1 MOL      0.614282
     22 O5          7.8480   -0.2180   -3.2770 o         1 MOL     -0.601113
     23 C9          9.6390    1.4050   -1.6310 c3        1 MOL     -0.278092
     24 H8          8.9880    0.9420    0.6250 hn        1 MOL      0.237583
     25 H9          9.7310   -0.7850   -1.6480 h1        1 MOL      0.050441
     26 H10        10.5120    1.6390   -1.0220 hc        1 MOL      0.074155
     27 H11         9.8610    1.6050   -2.6790 hc        1 MOL      0.074155
     28 H12         8.8220    2.0830   -1.3800 hc        1 MOL      0.074155
     29 N3          6.6880   -0.5420   -1.3140 n         1 MOL     -0.718490
     30 C10         5.3750   -1.0620   -1.7330 c3        1 MOL      0.382043
     31 C11         4.7470   -0.5110   -3.0570 c         1 MOL      0.439005
     32 O6          4.0280   -1.1890   -3.7670 o         1 MOL     -0.523640
     33 C12         5.3470   -2.6040   -1.7470 c3        1 MOL     -0.200033
     34 C13         3.9130   -3.1880   -1.4440 c         1 MOL      0.785582
     35 O7          3.4960   -4.2900   -1.8810 o         1 MOL     -0.810843
     36 O8          3.1920   -2.6100   -0.5830 o         1 MOL     -0.810843
     37 H13         6.9960   -0.5380   -0.3530 hn        1 MOL      0.279988
     38 H14         4.7000   -0.6210   -0.9960 h1        1 MOL      0.048990
     39 H15         5.9390   -2.9060   -0.8760 hc        1 MOL      0.059963
     40 H16         5.7140   -2.9400   -2.7120 hc        1 MOL      0.059963
     41 N4          5.0400    0.7710   -3.4170 n         1 MOL     -0.131485
     42 C14         4.7030    1.3610   -4.6570 c3        1 MOL     -0.347533
     43 C15         3.2890    2.0360   -4.5090 c         1 MOL      0.615004
     44 O9          2.8160    2.5970   -5.4600 o         1 MOL     -0.573917
     45 H17         5.6000    1.3650   -2.8310 hn        1 MOL      0.213535
     46 H18         4.7380    0.6510   -5.4850 h1        1 MOL      0.148341
     47 H19         5.4670    2.1090   -4.8280 h1        1 MOL      0.148341
     48 N5          2.5650    1.9520   -3.3550 n         1 MOL     -0.414382
     49 C16         1.3610    2.6840   -3.1320 c3        1 MOL      0.071240
     50 C17         1.6070    3.8800   -2.1390 c         1 MOL      0.374434
     51 O10         2.4380    3.8260   -1.1850 o         1 MOL     -0.502976
     52 C18         0.2670    1.7420   -2.7190 c3        1 MOL      0.028883
     53 C19        -1.1710    2.1950   -3.0430 c         1 MOL      0.507942
     54 N6         -2.0820    1.3310   -2.8100 n         1 MOL     -0.741578
     55 O11        -1.5390    3.2560   -3.4430 o         1 MOL     -0.552265
     56 H20         2.9490    1.4550   -2.5630 hn        1 MOL      0.183590
     57 H21         1.0730    3.1990   -4.0470 h1        1 MOL      0.034404
     58 H22         0.4340    1.5660   -1.6580 hc        1 MOL      0.096723
     59 H23         0.3740    0.7750   -3.2080 hc        1 MOL      0.096723
     60 H24        -1.8780    0.3800   -2.5280 hn        1 MOL      0.361883
     61 H25        -3.0000    1.7500   -2.8490 hn        1 MOL      0.361883
     62 N7          0.9580    4.9850   -2.5260 n         1 MOL     -0.241284
     63 C20         0.9690    6.1920   -1.7850 c3        1 MOL     -0.025541
     64 C21        -0.2720    6.4160   -0.9980 c         1 MOL      0.550170
     65 O12        -1.3460    6.0100   -1.5510 o         1 MOL     -0.512503
     66 H26         0.3130    4.8510   -3.2850 hn        1 MOL      0.243689
     67 H27         1.1930    6.9820   -2.4970 h1        1 MOL      0.042393
     68 H28         1.7850    6.1420   -1.0730 h1        1 MOL      0.042393
     69 N8         -0.1600    6.9220    0.2130 n         1 MOL     -0.488711
     70 C22        -1.3140    7.1920    1.1570 c3        1 MOL     -0.172320
     71 C23        -1.9580    6.0100    1.8200 c         1 MOL      0.500532
     72 O13        -3.0830    6.1400    2.3310 o         1 MOL     -0.555547
     73 C24        -1.0490    8.3020    2.2240 c3        1 MOL      0.393988
     74 C25        -0.0160    7.9360    3.2820 c3        1 MOL     -0.299216
     75 O14        -0.5910    9.4190    1.5370 oh        1 MOL     -0.603966
     76 H29         0.7570    7.2190    0.5120 hn        1 MOL      0.296150
     77 H30        -2.1240    7.5720    0.5430 h1        1 MOL      0.154629
     78 H31        -1.9980    8.5860    2.7000 h1        1 MOL      0.053555
     79 H32         0.3210    9.2180    1.3240 ho        1 MOL      0.368449
     80 H33         0.3940    8.7790    3.8330 hc        1 MOL      0.073033
     81 H34        -0.4170    7.2560    4.0430 hc        1 MOL      0.073033
     82 H35         0.8130    7.4610    2.7750 hc        1 MOL      0.073033
     83 N9         -1.2510    4.8440    1.8140 n         1 MOL     -0.317122
     84 C26        -1.7660    3.6080    2.3390 c3        1 MOL     -0.024233
     85 C27        -1.3700    2.4270    1.4680 c         1 MOL      0.595090
     86 O15        -0.2310    2.3530    0.9790 o         1 MOL     -0.493001
     87 C28        -1.2860    3.3430    3.7940 c3        1 MOL      0.217547
     88 C29         0.1890    3.6190    3.9630 c3        1 MOL     -0.074090
     89 C30        -2.0560    4.1530    4.8940 c3        1 MOL     -0.366032
     90 C31         0.8930    2.8580    5.1580 c3        1 MOL     -0.097730
     91 H36        -0.4490    4.7840    1.2060 hn        1 MOL      0.230713
     92 H37        -2.8590    3.6770    2.4370 h1        1 MOL      0.100323
     93 H38        -1.4200    2.3020    4.0980 hc        1 MOL      0.003835
     94 H39         0.2620    4.7010    4.0060 hc        1 MOL      0.034208
     95 H40         0.7530    3.1760    3.1510 hc        1 MOL      0.034208
     96 H41        -3.1270    4.1130    4.6780 hc        1 MOL      0.081881
     97 H42        -1.7650    3.8340    5.8940 hc        1 MOL      0.081881
     98 H43        -1.6950    5.1820    4.8610 hc        1 MOL      0.081881
     99 H44         0.6910    1.7980    5.2500 hc        1 MOL      0.026771
    100 H45         1.9740    3.0310    5.1420 hc        1 MOL      0.026771
    101 H46         0.4270    3.1320    6.1110 hc        1 MOL      0.026771
    102 N10        -2.3190    1.5030    1.3900 n         1 MOL     -0.925809
    103 C32        -2.1180    0.3140    0.5500 c3        1 MOL      1.058268
    104 C33        -3.4870    0.0020   -0.1520 c         1 MOL      0.322814
    105 O16        -3.6090   -1.1620   -0.5340 o         1 MOL     -0.426134
    106 C34        -1.5510   -0.9530    1.2130 c3        1 MOL     -0.726442
    107 C35        -0.6820   -1.8150    0.3520 c         1 MOL      1.004448
    108 O17        -0.4680   -1.5150   -0.8510 o         1 MOL     -0.829785
    109 O18        -0.2170   -2.8910    0.7780 o         1 MOL     -0.829785
    110 H47        -3.2650    1.7530    1.6260 hn        1 MOL      0.326765
    111 H48        -1.4780    0.6390   -0.2590 h1        1 MOL     -0.164779
    112 H49        -2.3540   -1.5210    1.6990 hc        1 MOL      0.146031
    113 H50        -0.9090   -0.6510    2.0410 hc        1 MOL      0.146031
    114 N11        -4.4890    0.9520   -0.1960 n         1 MOL     -0.631441
    115 C36        -5.8500    0.5710   -0.7400 c3        1 MOL      0.282342
    116 C37        -6.4500   -0.6360    0.1220 c         1 MOL      0.286734
    117 O19        -6.3350   -0.6530    1.3170 o         1 MOL     -0.454170
    118 C38        -6.8130    1.7370   -0.6510 c3        1 MOL     -0.249841
    119 C39        -8.1580    1.5310   -1.3340 ca        1 MOL      0.139123
    120 C40        -8.2290    1.6120   -2.7430 ca        1 MOL     -0.195696
    121 C41        -9.2490    1.1750   -0.5640 ca        1 MOL     -0.195696
    122 C42        -9.4100    1.3900   -3.3960 ca        1 MOL     -0.081404
    123 C43       -10.3990    0.7810   -1.3070 ca        1 MOL     -0.081404
    124 C44       -10.4680    0.8260   -2.6970 ca        1 MOL     -0.129604
    125 H51        -4.3570    1.8790    0.1790 hn        1 MOL      0.329357
    126 H52        -5.8000    0.3470   -1.8070 h1        1 MOL      0.034892
    127 H53        -6.3850    2.6170   -1.1350 hc        1 MOL      0.089362
    128 H54        -6.8970    1.9300    0.4120 hc        1 MOL      0.089362
    129 H55        -7.3520    1.9520   -3.2750 ha        1 MOL      0.136283
    130 H56        -9.0840    1.0130    0.4870 ha        1 MOL      0.136283
    131 H57        -9.5560    1.5290   -4.4630 ha        1 MOL      0.098929
    132 H58       -11.2940    0.5280   -0.7520 ha        1 MOL      0.098929
    133 H59       -11.3490    0.4420   -3.1940 ha        1 MOL      0.109455
    134 N12        -7.1260   -1.6060   -0.4900 n         1 MOL     -0.004339
    135 C45        -7.8080   -2.7090    0.2080 c3        1 MOL      0.025947
    136 C46        -6.9750   -3.5560    1.1650 c         1 MOL      0.331279
    137 O20        -7.6560   -4.2170    2.0020 o         1 MOL     -0.528199
    138 C47        -8.6460   -3.4410   -0.8650 c3        1 MOL     -0.112619
    139 C48        -7.8100   -3.2750   -2.1180 c3        1 MOL      0.084630
    140 C49        -7.3380   -1.8150   -1.9820 c3        1 MOL     -0.257064
    141 H60        -8.4600   -2.2190    0.9370 h1        1 MOL      0.048483
    142 H61        -8.8280   -4.4340   -0.4680 hc        1 MOL      0.053038
    143 H62        -9.5530   -2.8950   -1.1140 hc        1 MOL      0.053038
    144 H63        -7.0440   -4.0470   -2.2040 hc        1 MOL      0.014471
    145 H64        -8.5020   -3.4520   -2.9530 hc        1 MOL      0.014471
    146 H65        -6.4550   -1.6200   -2.6000 h1        1 MOL      0.102088
    147 H66        -8.1060   -1.1750   -2.4260 h1        1 MOL      0.102088
    148 N13        -5.6650   -3.6030    0.9920 n         1 MOL     -0.047466
    149 C50        -4.8290   -4.3990    1.9010 c3        1 MOL     -0.225916
    150 C51        -4.6950   -3.8440    3.2970 c         1 MOL      0.550512
    151 O21        -4.2740   -4.5140    4.2390 o         1 MOL     -0.558635
    152 C52        -3.4130   -4.5330    1.3300 c3        1 MOL      0.203275
    153 C53        -3.4060   -5.6540    0.2160 c3        1 MOL     -0.400834
    154 C54        -2.2020   -5.2140   -0.6200 c         1 MOL      0.950292
    155 O22        -1.1000   -5.5130   -0.1650 o         1 MOL     -0.790864
    156 O23        -2.3570   -4.9890   -1.8230 o         1 MOL     -0.790864
    157 H67        -5.2630   -3.0460    0.2520 hn        1 MOL      0.154673
    158 H68        -5.2570   -5.3860    2.0410 h1        1 MOL      0.106534
    159 H69        -2.6720   -4.6810    2.1110 hc        1 MOL     -0.020391
    160 H70        -3.1400   -3.5430    0.9580 hc        1 MOL     -0.020391
    161 H71        -4.2880   -5.6120   -0.4140 hc        1 MOL      0.085615
    162 H72        -3.1540   -6.6070    0.6790 hc        1 MOL      0.085615
    163 N14        -5.0410   -2.5750    3.3880 n         1 MOL     -0.255557
    164 C55        -4.6590   -1.8270    4.6180 c3        1 MOL     -0.185989
    165 H73        -4.8220   -0.7610    4.4600 h1        1 MOL      0.086966
    166 H74        -5.2700   -2.1680    5.4550 h1        1 MOL      0.086966
    167 H75        -3.6070   -2.0040    4.8400 h1        1 MOL      0.086966
    168 H76        -5.1550   -2.1190    2.4910 hn        1 MOL      0.182921
    169 Ca1         1.3420   -4.4130   -0.3720 Ca        1 MOL      1.747349
    170 O24         0.5530   -4.9720    2.4250 oh        1 MOL     -0.790554
    171 H77         0.4860   -5.1240    3.3750 ho        1 MOL      0.390133
    172 H78         0.0950   -4.1410    2.2800 ho        1 MOL      0.390133
    173 O25         3.3460   -5.6550    0.9290 oh        1 MOL     -0.790554
    174 H79         3.5310   -5.8580    1.8440 ho        1 MOL      0.390133
    175 H80         4.2100   -5.6460    0.5120 ho        1 MOL      0.390133
    176 O26         1.6040   -7.0960   -1.1330 oh        1 MOL     -0.790554
    177 H81         0.9430   -7.5390   -1.6790 ho        1 MOL      0.390133
    178 H82         2.3300   -7.7120   -1.0910 ho        1 MOL      0.390133
    179 O27         0.0990   -4.1940   -2.4730 oh        1 MOL     -0.790554
    180 H83        -0.8530   -4.3190   -2.4790 ho        1 MOL      0.390133
    181 H84         0.3530   -4.2580   -3.3930 ho        1 MOL      0.390133
@<TRIPOS>BOND
     1    1    2 1   
     2    1    4 1   
     3    1    5 1   
     4    1    6 1   
     5    2    3 2   
     6    2    7 1   
     7    7    8 1   
     8    7   15 1   
     9    8    9 1   
    10    8   11 1   
    11    8   16 1   
    12    9   10 2   
    13    9   19 1   
    14   11   12 1   
    15   11   17 1   
    16   11   18 1   
    17   12   13 1   
    18   12   14 1   
    19   19   20 1   
    20   19   24 1   
    21   20   21 1   
    22   20   23 1   
    23   20   25 1   
    24   21   22 2   
    25   21   29 1   
    26   23   26 1   
    27   23   27 1   
    28   23   28 1   
    29   29   30 1   
    30   29   37 1   
    31   30   31 1   
    32   30   33 1   
    33   30   38 1   
    34   31   32 2   
    35   31   41 1   
    36   33   34 1   
    37   33   39 1   
    38   33   40 1   
    39   34   35 1   
    40   34   36 1   
    41   41   42 1   
    42   41   45 1   
    43   42   43 1   
    44   42   46 1   
    45   42   47 1   
    46   43   44 2   
    47   43   48 1   
    48   48   49 1   
    49   48   56 1   
    50   49   50 1   
    51   49   52 1   
    52   49   57 1   
    53   50   51 2   
    54   50   62 1   
    55   52   53 1   
    56   52   58 1   
    57   52   59 1   
    58   53   54 1   
    59   53   55 2   
    60   54   60 1   
    61   54   61 1   
    62   62   63 1   
    63   62   66 1   
    64   63   64 1   
    65   63   67 1   
    66   63   68 1   
    67   64   65 2   
    68   64   69 1   
    69   69   70 1   
    70   69   76 1   
    71   70   71 1   
    72   70   73 1   
    73   70   77 1   
    74   71   72 2   
    75   71   83 1   
    76   73   74 1   
    77   73   75 1   
    78   73   78 1   
    79   74   80 1   
    80   74   81 1   
    81   74   82 1   
    82   75   79 1   
    83   83   84 1   
    84   83   91 1   
    85   84   85 1   
    86   84   87 1   
    87   84   92 1   
    88   85   86 2   
    89   85  102 1   
    90   87   88 1   
    91   87   89 1   
    92   87   93 1   
    93   88   90 1   
    94   88   94 1   
    95   88   95 1   
    96   89   96 1   
    97   89   97 1   
    98   89   98 1   
    99   90   99 1   
   100   90  100 1   
   101   90  101 1   
   102  102  103 1   
   103  102  110 1   
   104  103  104 1   
   105  103  106 1   
   106  103  111 1   
   107  104  105 2   
   108  104  114 1   
   109  106  107 1   
   110  106  112 1   
   111  106  113 1   
   112  107  108 1   
   113  107  109 1   
   114  114  115 1   
   115  114  125 1   
   116  115  116 1   
   117  115  118 1   
   118  115  126 1   
   119  116  117 2   
   120  116  134 1   
   121  118  119 1   
   122  118  127 1   
   123  118  128 1   
   124  119  120 ar  
   125  119  121 ar  
   126  120  122 ar  
   127  120  129 1   
   128  121  123 ar  
   129  121  130 1   
   130  122  124 ar  
   131  122  131 1   
   132  123  124 ar  
   133  123  132 1   
   134  124  133 1   
   135  134  135 1   
   136  134  140 1   
   137  135  136 1   
   138  135  138 1   
   139  135  141 1   
   140  136  137 2   
   141  136  148 1   
   142  138  139 1   
   143  138  142 1   
   144  138  143 1   
   145  139  140 1   
   146  139  144 1   
   147  139  145 1   
   148  140  146 1   
   149  140  147 1   
   150  148  149 1   
   151  148  157 1   
   152  149  150 1   
   153  149  152 1   
   154  149  158 1   
   155  150  151 2   
   156  150  163 1   
   157  152  153 1   
   158  152  159 1   
   159  152  160 1   
   160  153  154 1   
   161  153  161 1   
   162  153  162 1   
   163  154  155 1   
   164  154  156 1   
   165  163  164 1   
   166  163  168 1   
   167  164  165 1   
   168  164  166 1   
   169  164  167 1   
   170  170  171 1   
   171  170  172 1   
   172  173  174 1   
   173  173  175 1   
   174  176  177 1   
   175  176  178 1   
   176  179  180 1   
   177  179  181 1   
@<TRIPOS>SUBSTRUCTURE
     1 MOL         1 TEMP              0 ****  ****    0 ROOT
