@<TRIPOS>MOLECULE
MOL
  181   177     1     0     0
SMALL
resp


@<TRIPOS>ATOM
      1 C1          5.5740   -2.1310    4.1700 c3        1 MOL     -0.356523
      2 C2          6.6620   -1.5080    3.2600 c         1 MOL      0.665994
      3 O1          6.3350   -0.7590    2.3280 o         1 MOL     -0.555519
      4 H1          5.3290   -3.1300    3.8090 hc        1 MOL      0.096637
      5 H2          5.9480   -2.1960    5.1920 hc        1 MOL      0.096637
      6 H3          4.6800   -1.5070    4.1490 hc        1 MOL      0.096637
      7 N1          7.9540   -1.6640    3.5720 n         1 MOL     -0.468708
      8 C3          9.0690   -0.9930    2.8730 c3        1 MOL     -0.080875
      9 C4          9.1430   -1.2350    1.3710 c         1 MOL      0.694589
     10 O2          9.0260   -2.3300    0.8390 o         1 MOL     -0.579539
     11 C5         10.4310   -1.3510    3.5100 c3        1 MOL     -0.231473
     12 C6         11.7680   -0.7400    2.8250 c         1 MOL      0.671364
     13 O3         12.7390   -1.5250    2.8760 o         1 MOL     -0.696654
     14 O4         11.8340    0.4880    2.4220 o         1 MOL     -0.696654
     15 H4          8.1520   -2.2520    4.3680 hn        1 MOL      0.294720
     16 H5          8.8800    0.0800    2.9730 h1        1 MOL      0.069274
     17 H6         10.4930   -2.4340    3.5290 hc        1 MOL      0.056303
     18 H7         10.4100   -1.1210    4.5810 hc        1 MOL      0.056303
     19 N2          9.2600   -0.1520    0.6080 n         1 MOL     -0.515844
     20 C7          9.2410   -0.1710   -0.8560 c3        1 MOL      0.280402
     21 C8          7.8110   -0.5360   -1.4080 c         1 MOL      0.161821
     22 O5          7.6870   -0.7740   -2.6640 o         1 MOL     -0.486483
     23 C9          9.8120    1.1030   -1.3520 c3        1 MOL     -0.269691
     24 H8          9.2240    0.7320    1.0850 hn        1 MOL      0.263154
     25 H9          9.8960   -0.9850   -1.1570 h1        1 MOL      0.077214
     26 H10        10.7250    1.4020   -0.8420 hc        1 MOL      0.069409
     27 H11        10.0480    1.0100   -2.4060 hc        1 MOL      0.069409
     28 H12         8.9850    1.7920   -1.1550 hc        1 MOL      0.069409
     29 N3          6.7680   -0.5610   -0.5300 n         1 MOL      0.003011
     30 C10         5.3650   -0.8590   -0.8210 c3        1 MOL      0.043994
     31 C11         4.7020    0.2430   -1.6980 c         1 MOL      0.314186
     32 O6          3.9490   -0.0260   -2.6340 o         1 MOL     -0.378113
     33 C12         5.1310   -2.3400   -1.2800 c3        1 MOL      0.114794
     34 C13         3.7140   -2.6890   -1.5840 c         1 MOL      0.531930
     35 O7          3.4720   -3.3960   -2.5740 o         1 MOL     -0.697973
     36 O8          2.8140   -2.3570   -0.7830 o         1 MOL     -0.697973
     37 H13         6.9780   -0.5020    0.4540 hn        1 MOL      0.074373
     38 H14         4.8850   -0.8510    0.1560 h1        1 MOL      0.020123
     39 H15         5.6080   -2.9670   -0.5290 hc        1 MOL     -0.010640
     40 H16         5.6130   -2.5790   -2.2300 hc        1 MOL     -0.010640
     41 N4          5.1990    1.4830   -1.4820 n         1 MOL     -0.172733
     42 C14         5.2590    2.4820   -2.4940 c3        1 MOL     -0.112497
     43 C15         3.8540    2.7960   -3.1030 c         1 MOL      0.419343
     44 O9          3.6890    2.8930   -4.3150 o         1 MOL     -0.542175
     45 H17         5.6470    1.7160   -0.6130 hn        1 MOL      0.193102
     46 H18         5.9510    2.1780   -3.2840 h1        1 MOL      0.081505
     47 H19         5.6210    3.4250   -2.0940 h1        1 MOL      0.081505
     48 N5          2.8060    2.8640   -2.3230 n         1 MOL     -0.335377
     49 C16         1.4060    3.1650   -2.7190 c3        1 MOL      0.175523
     50 C17         0.7530    4.3980   -2.0290 c         1 MOL      0.409940
     51 O10         0.8630    4.6200   -0.8430 o         1 MOL     -0.540043
     52 C18         0.5180    1.9320   -2.4160 c3        1 MOL      0.118878
     53 C19        -0.6870    1.8260   -3.3590 c         1 MOL      0.452760
     54 N6         -1.4550    0.7650   -3.1310 n         1 MOL     -0.586969
     55 O11        -0.8990    2.5560   -4.2950 o         1 MOL     -0.565468
     56 H20         2.9250    2.5990   -1.3560 hn        1 MOL      0.177904
     57 H21         1.4420    3.4590   -3.7670 h1        1 MOL      0.005734
     58 H22         0.1530    2.1050   -1.4060 hc        1 MOL     -0.005987
     59 H23         1.0890    0.9970   -2.4110 hc        1 MOL     -0.005987
     60 H24        -1.1140   -0.0650   -2.6670 hn        1 MOL      0.286558
     61 H25        -2.2310    0.7450   -3.7830 hn        1 MOL      0.286558
     62 N7          0.0700    5.2520   -2.8260 n         1 MOL     -0.327660
     63 C20        -0.4600    6.6070   -2.3050 c3        1 MOL     -0.054303
     64 C21        -1.6700    6.5830   -1.4370 c         1 MOL      0.456162
     65 O12        -2.6600    6.0200   -1.8160 o         1 MOL     -0.485311
     66 H26         0.0320    5.0790   -3.8160 hn        1 MOL      0.284572
     67 H27        -0.6160    7.3040   -3.1280 h1        1 MOL      0.049560
     68 H28         0.3310    7.1290   -1.7600 h1        1 MOL      0.049560
     69 N8         -1.5230    7.0270   -0.2470 n         1 MOL     -0.160624
     70 C22        -2.5710    7.2540    0.7330 c3        1 MOL     -0.563025
     71 C23        -3.0800    6.0090    1.4990 c         1 MOL      0.549787
     72 O13        -4.2420    6.0390    1.9240 o         1 MOL     -0.568815
     73 C24        -2.2160    8.4090    1.6730 c3        1 MOL      0.498068
     74 C25        -1.0480    8.2290    2.6770 c3        1 MOL     -0.274521
     75 O14        -1.9460    9.5100    0.8860 oh        1 MOL     -0.648021
     76 H29        -0.6260    7.4510   -0.0410 hn        1 MOL      0.236679
     77 H30        -3.4340    7.6170    0.1690 h1        1 MOL      0.227789
     78 H31        -3.0020    8.7120    2.3490 h1        1 MOL      0.051584
     79 H32        -1.1210    9.4290    0.4060 ho        1 MOL      0.375062
     80 H33        -0.2560    8.9540    2.4870 hc        1 MOL      0.059392
     81 H34        -1.4540    8.4630    3.6650 hc        1 MOL      0.059392
     82 H35        -0.6900    7.1910    2.6360 hc        1 MOL      0.059392
     83 N9         -2.2210    5.0150    1.6450 n         1 MOL     -0.125331
     84 C26        -2.4440    3.6350    2.1290 c3        1 MOL     -0.032153
     85 C27        -2.2310    2.6870    0.9590 c         1 MOL      0.482759
     86 O15        -1.8880    3.0360   -0.1510 o         1 MOL     -0.398045
     87 C28        -1.5410    3.2220    3.2880 c3        1 MOL      0.144322
     88 C29        -0.0450    3.0370    2.9180 c3        1 MOL     -0.051870
     89 C30        -1.7400    4.1720    4.4420 c3        1 MOL     -0.318517
     90 C31         1.0120    2.7720    4.0180 c3        1 MOL     -0.062032
     91 H36        -1.3100    5.2370    1.2820 hn        1 MOL      0.174033
     92 H37        -3.4620    3.6800    2.5100 h1        1 MOL      0.079190
     93 H38        -1.9570    2.2820    3.6480 hc        1 MOL      0.011078
     94 H39         0.3060    3.9710    2.4820 hc        1 MOL      0.044165
     95 H40         0.0450    2.3500    2.0760 hc        1 MOL      0.044165
     96 H41        -2.7830    4.0840    4.7400 hc        1 MOL      0.068989
     97 H42        -1.1580    3.8260    5.2940 hc        1 MOL      0.068989
     98 H43        -1.5130    5.2100    4.1980 hc        1 MOL      0.068989
     99 H44         2.0440    2.8920    3.7070 hc        1 MOL      0.021926
    100 H45         0.8420    3.5340    4.7860 hc        1 MOL      0.021926
    101 H46         0.8580    1.7950    4.4790 hc        1 MOL      0.021926
    102 N10        -2.5190    1.3790    1.1970 n         1 MOL     -0.745362
    103 C32        -2.2890    0.3250    0.2020 c3        1 MOL      0.250275
    104 C33        -3.5750   -0.4890   -0.0890 c         1 MOL      0.513022
    105 O16        -3.6860   -1.7120   -0.2720 o         1 MOL     -0.473249
    106 C34        -1.0550   -0.5120    0.6560 c3        1 MOL     -0.030560
    107 C35        -0.6580   -1.5780   -0.3360 c         1 MOL      0.530711
    108 O17        -0.8460   -1.4180   -1.5730 o         1 MOL     -0.633494
    109 O18        -0.0830   -2.6110   -0.0030 o         1 MOL     -0.633494
    110 H47        -2.8130    1.1140    2.1280 hn        1 MOL      0.329864
    111 H48        -2.1320    0.7720   -0.7780 h1        1 MOL     -0.022081
    112 H49        -1.3610   -1.0280    1.5660 hc        1 MOL      0.047557
    113 H50        -0.2630    0.1640    0.9870 hc        1 MOL      0.047557
    114 N11        -4.7180    0.2280    0.1010 n         1 MOL     -0.509321
    115 C36        -6.0870   -0.2460   -0.0740 c3        1 MOL      0.179768
    116 C37        -6.3590   -1.4260    0.8690 c         1 MOL      0.301408
    117 O19        -6.0600   -1.3210    2.0830 o         1 MOL     -0.504718
    118 C38        -7.0950    0.8950    0.0760 c3        1 MOL     -0.291196
    119 C39        -8.5360    0.4960   -0.3100 ca        1 MOL      0.116416
    120 C40        -9.1430    1.0110   -1.4580 ca        1 MOL     -0.133996
    121 C41        -9.2270   -0.4610    0.4210 ca        1 MOL     -0.133996
    122 C42       -10.4100    0.6400   -1.7990 ca        1 MOL     -0.130978
    123 C43       -10.5080   -0.8640    0.1180 ca        1 MOL     -0.130978
    124 C44       -11.1100   -0.2350   -0.9440 ca        1 MOL     -0.110590
    125 H51        -4.5650    1.2140    0.2120 hn        1 MOL      0.323358
    126 H52        -6.0740   -0.4980   -1.1370 h1        1 MOL      0.046285
    127 H53        -6.8070    1.7800   -0.5010 hc        1 MOL      0.116483
    128 H54        -7.1000    1.1850    1.1160 hc        1 MOL      0.116483
    129 H55        -8.5730    1.6120   -2.1510 ha        1 MOL      0.105378
    130 H56        -8.7290   -0.8710    1.2930 ha        1 MOL      0.105378
    131 H57       -10.8590    0.9790   -2.7140 ha        1 MOL      0.117913
    132 H58       -10.9790   -1.6430    0.7020 ha        1 MOL      0.117913
    133 H59       -12.0780   -0.6460   -1.2170 ha        1 MOL      0.089567
    134 N12        -6.7290   -2.6520    0.4190 n         1 MOL      0.045233
    135 C45        -7.1300   -3.7220    1.2970 c3        1 MOL      0.009814
    136 C46        -5.8360   -4.1420    2.1310 c         1 MOL      0.396313
    137 O20        -6.0060   -4.6960    3.2060 o         1 MOL     -0.561952
    138 C47        -7.6360   -4.8940    0.4740 c3        1 MOL      0.088081
    139 C48        -8.1640   -4.1860   -0.7700 c3        1 MOL     -0.198793
    140 C49        -7.2030   -2.9760   -0.9190 c3        1 MOL      0.108726
    141 H60        -7.9270   -3.3700    1.9460 h1        1 MOL      0.040039
    142 H61        -6.7260   -5.4480    0.2360 hc        1 MOL      0.014199
    143 H62        -8.3180   -5.5690    0.9990 hc        1 MOL      0.014199
    144 H63        -8.2540   -4.7830   -1.6760 hc        1 MOL      0.046110
    145 H64        -9.1600   -3.8070   -0.5050 hc        1 MOL      0.046110
    146 H65        -6.3230   -3.1920   -1.5310 h1        1 MOL      0.012813
    147 H66        -7.6060   -2.1780   -1.5530 h1        1 MOL      0.012813
    148 N13        -4.5720   -3.9650    1.6550 n         1 MOL     -0.233017
    149 C50        -3.3540   -4.5930    2.2410 c3        1 MOL     -0.029677
    150 C51        -2.7540   -3.8520    3.4410 c         1 MOL      0.365342
    151 O21        -1.6980   -4.1930    3.9390 o         1 MOL     -0.501723
    152 C52        -2.2580   -4.8750    1.1880 c3        1 MOL     -0.066747
    153 C53        -2.6570   -5.7100   -0.0790 c3        1 MOL     -0.008524
    154 C54        -1.5540   -5.7460   -1.1960 c         1 MOL      0.665647
    155 O22        -0.9890   -6.8760   -1.4560 o         1 MOL     -0.733148
    156 O23        -1.4290   -4.7000   -1.9390 o         1 MOL     -0.733148
    157 H67        -4.4150   -3.4430    0.8110 hn        1 MOL      0.140814
    158 H68        -3.6150   -5.5840    2.6120 h1        1 MOL      0.099172
    159 H69        -1.4400   -5.3160    1.7450 hc        1 MOL      0.053311
    160 H70        -1.9640   -3.8920    0.8050 hc        1 MOL      0.053311
    161 H71        -3.5550   -5.3010   -0.5300 hc        1 MOL     -0.013756
    162 H72        -2.9350   -6.6910    0.3020 hc        1 MOL     -0.013756
    163 N14        -3.4380   -2.8020    3.8980 n         1 MOL     -0.117269
    164 C55        -3.1400   -2.0290    5.1510 c3        1 MOL     -0.276154
    165 H73        -2.2410   -1.4310    5.0030 h1        1 MOL      0.108098
    166 H74        -3.9790   -1.3720    5.3810 h1        1 MOL      0.108098
    167 H75        -2.9820   -2.7220    5.9770 h1        1 MOL      0.108098
    168 H76        -4.2350   -2.5670    3.3150 hn        1 MOL      0.200876
    169 Ca1         0.6940   -3.3450   -2.4190 Ca        1 MOL      1.731273
    170 O24         1.4410   -1.4880   -4.1490 oh        1 MOL     -0.821175
    171 H77         2.1900   -0.9980   -3.8260 ho        1 MOL      0.401608
    172 H78         1.0440   -0.9110   -4.7990 ho        1 MOL      0.401608
    173 O25         1.2640   -5.5560   -1.0910 oh        1 MOL     -0.821175
    174 H79         0.6210   -6.2420   -1.2740 ho        1 MOL      0.401608
    175 H80         2.0120   -6.0220   -0.7020 ho        1 MOL      0.401608
    176 O26         1.5920   -4.8330   -4.3860 oh        1 MOL     -0.821175
    177 H81         2.2700   -5.5120   -4.3600 ho        1 MOL      0.401608
    178 H82         1.3170   -4.7980   -5.2950 ho        1 MOL      0.401608
    179 O27        -1.1920   -2.7490   -4.1110 oh        1 MOL     -0.821175
    180 H83        -1.9430   -2.1530   -4.1110 ho        1 MOL      0.401608
    181 H84        -1.1370   -3.0700   -5.0010 ho        1 MOL      0.401608
@<TRIPOS>BOND
     1    1    2 1   
     2    1    4 1   
     3    1    5 1   
     4    1    6 1   
     5    2    3 2   
     6    2    7 1   
     7    7    8 1   
     8    7   15 1   
     9    8    9 1   
    10    8   11 1   
    11    8   16 1   
    12    9   10 2   
    13    9   19 1   
    14   11   12 1   
    15   11   17 1   
    16   11   18 1   
    17   12   13 1   
    18   12   14 1   
    19   19   20 1   
    20   19   24 1   
    21   20   21 1   
    22   20   23 1   
    23   20   25 1   
    24   21   22 2   
    25   21   29 1   
    26   23   26 1   
    27   23   27 1   
    28   23   28 1   
    29   29   30 1   
    30   29   37 1   
    31   30   31 1   
    32   30   33 1   
    33   30   38 1   
    34   31   32 2   
    35   31   41 1   
    36   33   34 1   
    37   33   39 1   
    38   33   40 1   
    39   34   35 1   
    40   34   36 1   
    41   41   42 1   
    42   41   45 1   
    43   42   43 1   
    44   42   46 1   
    45   42   47 1   
    46   43   44 2   
    47   43   48 1   
    48   48   49 1   
    49   48   56 1   
    50   49   50 1   
    51   49   52 1   
    52   49   57 1   
    53   50   51 2   
    54   50   62 1   
    55   52   53 1   
    56   52   58 1   
    57   52   59 1   
    58   53   54 1   
    59   53   55 2   
    60   54   60 1   
    61   54   61 1   
    62   62   63 1   
    63   62   66 1   
    64   63   64 1   
    65   63   67 1   
    66   63   68 1   
    67   64   65 2   
    68   64   69 1   
    69   69   70 1   
    70   69   76 1   
    71   70   71 1   
    72   70   73 1   
    73   70   77 1   
    74   71   72 2   
    75   71   83 1   
    76   73   74 1   
    77   73   75 1   
    78   73   78 1   
    79   74   80 1   
    80   74   81 1   
    81   74   82 1   
    82   75   79 1   
    83   83   84 1   
    84   83   91 1   
    85   84   85 1   
    86   84   87 1   
    87   84   92 1   
    88   85   86 2   
    89   85  102 1   
    90   87   88 1   
    91   87   89 1   
    92   87   93 1   
    93   88   90 1   
    94   88   94 1   
    95   88   95 1   
    96   89   96 1   
    97   89   97 1   
    98   89   98 1   
    99   90   99 1   
   100   90  100 1   
   101   90  101 1   
   102  102  103 1   
   103  102  110 1   
   104  103  104 1   
   105  103  106 1   
   106  103  111 1   
   107  104  105 2   
   108  104  114 1   
   109  106  107 1   
   110  106  112 1   
   111  106  113 1   
   112  107  108 1   
   113  107  109 1   
   114  114  115 1   
   115  114  125 1   
   116  115  116 1   
   117  115  118 1   
   118  115  126 1   
   119  116  117 2   
   120  116  134 1   
   121  118  119 1   
   122  118  127 1   
   123  118  128 1   
   124  119  120 ar  
   125  119  121 ar  
   126  120  122 ar  
   127  120  129 1   
   128  121  123 ar  
   129  121  130 1   
   130  122  124 ar  
   131  122  131 1   
   132  123  124 ar  
   133  123  132 1   
   134  124  133 1   
   135  134  135 1   
   136  134  140 1   
   137  135  136 1   
   138  135  138 1   
   139  135  141 1   
   140  136  137 2   
   141  136  148 1   
   142  138  139 1   
   143  138  142 1   
   144  138  143 1   
   145  139  140 1   
   146  139  144 1   
   147  139  145 1   
   148  140  146 1   
   149  140  147 1   
   150  148  149 1   
   151  148  157 1   
   152  149  150 1   
   153  149  152 1   
   154  149  158 1   
   155  150  151 2   
   156  150  163 1   
   157  152  153 1   
   158  152  159 1   
   159  152  160 1   
   160  153  154 1   
   161  153  161 1   
   162  153  162 1   
   163  154  155 1   
   164  154  156 1   
   165  163  164 1   
   166  163  168 1   
   167  164  165 1   
   168  164  166 1   
   169  164  167 1   
   170  170  171 1   
   171  170  172 1   
   172  173  174 1   
   173  173  175 1   
   174  176  177 1   
   175  176  178 1   
   176  179  180 1   
   177  179  181 1   
@<TRIPOS>SUBSTRUCTURE
     1 MOL         1 TEMP              0 ****  ****    0 ROOT
