@<TRIPOS>MOLECULE
MOL
  195   189     1     0     0
SMALL
resp


@<TRIPOS>ATOM
      1 C1         -2.6890   -7.5470   -1.7970 c3        1 MOL     -0.302375
      2 C2         -2.4870   -6.0120   -1.5910 c         1 MOL      0.597305
      3 O1         -2.1000   -5.2560   -2.4910 o         1 MOL     -0.548606
      4 H1         -2.9630   -7.7410   -2.8340 hc        1 MOL      0.079190
      5 H2         -1.7630   -8.0710   -1.5620 hc        1 MOL      0.079190
      6 H3         -3.4840   -7.9020   -1.1400 hc        1 MOL      0.079190
      7 N1         -2.8130   -5.4920   -0.4060 n         1 MOL     -0.416029
      8 C3         -2.9780   -4.0380   -0.2530 c3        1 MOL      0.079305
      9 C4         -1.5850   -3.4610    0.0590 c         1 MOL      0.470847
     10 O2         -1.3710   -2.2790   -0.2180 o         1 MOL     -0.503173
     11 C5         -4.0850   -3.6710    0.7560 c3        1 MOL     -0.272814
     12 C6         -3.9390   -4.1970    2.1620 c         1 MOL      0.769761
     13 O3         -2.9400   -4.8200    2.5390 o         1 MOL     -0.746013
     14 O4         -4.8440   -3.9080    2.9210 o         1 MOL     -0.746013
     15 H4         -3.1390   -6.1030    0.3350 hn        1 MOL      0.264834
     16 H5         -3.2140   -3.5900   -1.2220 h1        1 MOL      0.046246
     17 H6         -5.0050   -4.1600    0.4320 hc        1 MOL      0.071803
     18 H7         -4.1690   -2.5780    0.7270 hc        1 MOL      0.071803
     19 N2         -0.6290   -4.2440    0.4620 n         1 MOL     -0.381555
     20 C7          0.7430   -3.6680    0.8550 c3        1 MOL      0.013369
     21 C8          1.8250   -3.6200   -0.3280 c         1 MOL      0.567032
     22 O5          1.7910   -4.4690   -1.1920 o         1 MOL     -0.528716
     23 C9          1.2880   -4.6050    1.9100 c3        1 MOL     -0.233906
     24 C10         0.5090   -4.4300    3.2190 c3        1 MOL      0.392058
     25 C11         1.2800   -5.2170    4.2990 c3        1 MOL     -0.181852
     26 C12         0.7720   -5.0910    5.7960 c3        1 MOL      0.037676
     27 N3         -0.5010   -5.7290    5.9730 n4        1 MOL     -0.369943
     28 H8         -0.8240   -5.2260    0.6410 hn        1 MOL      0.265836
     29 H9          0.6960   -2.6770    1.2950 h1        1 MOL      0.111707
     30 H10         2.3050   -4.2630    2.0800 hc        1 MOL      0.059199
     31 H11         1.2230   -5.6360    1.5590 hc        1 MOL      0.059199
     32 H12        -0.5130   -4.7770    3.0720 hc        1 MOL     -0.078543
     33 H13         0.6190   -3.3820    3.5050 hc        1 MOL     -0.078543
     34 H14         2.2830   -4.7930    4.4010 hc        1 MOL      0.051786
     35 H15         1.3080   -6.2590    3.9550 hc        1 MOL      0.051786
     36 H16         0.6780   -4.0490    6.0940 hx        1 MOL      0.089793
     37 H17         1.5080   -5.5030    6.4730 hx        1 MOL      0.089793
     38 H18        -0.9490   -5.4220    6.8290 hn        1 MOL      0.325424
     39 H19        -1.1180   -5.6400    5.1820 hn        1 MOL      0.325424
     40 H20        -0.4760   -6.7360    6.1010 hn        1 MOL      0.325424
     41 N4          2.7050   -2.6540   -0.3670 n         1 MOL     -0.491468
     42 C13         2.6840   -1.3880    0.4320 c3        1 MOL      0.110335
     43 C14         2.9740   -1.4510    1.9630 c         1 MOL      0.496346
     44 O6          2.0860   -1.2380    2.7660 o         1 MOL     -0.539198
     45 C15         1.5290   -0.4680    0.0680 c3        1 MOL     -0.023916
     46 C16         1.2950   -0.2010   -1.3530 c         1 MOL      0.799597
     47 O7          2.2170   -0.3650   -2.2580 o         1 MOL     -0.775339
     48 O8          0.2410    0.3590   -1.7540 o         1 MOL     -0.775339
     49 H21         3.4150   -2.6930   -1.0770 hn        1 MOL      0.289572
     50 H22         3.5980   -0.8620    0.1760 h1        1 MOL     -0.001068
     51 H23         1.6530    0.5050    0.5430 hc        1 MOL     -0.015659
     52 H24         0.6590   -0.8960    0.5730 hc        1 MOL     -0.015659
     53 N5          4.1780   -1.8040    2.2540 n         1 MOL     -0.267777
     54 C17         5.3860   -1.8780    1.4820 c3        1 MOL     -0.074562
     55 C18         6.6000   -2.5280    2.1430 c         1 MOL      0.569808
     56 O9          6.6470   -2.9850    3.3270 o         1 MOL     -0.602637
     57 H25         4.2720   -1.8910    3.2480 hn        1 MOL      0.218816
     58 H26         5.6760   -0.8690    1.2040 h1        1 MOL      0.089702
     59 H27         5.1150   -2.5050    0.6400 h1        1 MOL      0.089702
     60 N6          7.7760   -2.7740    1.5550 n         1 MOL     -0.455743
     61 C19         8.1290   -2.3130    0.2040 c3        1 MOL      0.010069
     62 C20         8.3690   -0.7640    0.0440 c         1 MOL      0.517415
     63 O10         9.1590   -0.2450    0.8120 o         1 MOL     -0.508455
     64 C21         9.3110   -3.0920   -0.2840 c3        1 MOL     -0.008274
     65 C22         9.4060   -2.8920   -1.7880 c         1 MOL      0.589489
     66 O11         8.3070   -2.9280   -2.4670 o         1 MOL     -0.644421
     67 O12        10.5830   -2.7730   -2.3100 o         1 MOL     -0.644421
     68 H28         8.4290   -3.1190    2.2460 hn        1 MOL      0.319422
     69 H29         7.2940   -2.6170   -0.4310 h1        1 MOL     -0.005494
     70 H30         9.1010   -4.1500   -0.0840 hc        1 MOL      0.018528
     71 H31        10.2580   -2.8850    0.2120 hc        1 MOL      0.018528
     72 N7          7.7080   -0.0880   -0.9310 n         1 MOL     -0.338195
     73 C23         7.7470    1.3490   -0.9280 c3        1 MOL     -0.004603
     74 C24         6.7640    2.0990    0.0240 c         1 MOL      0.484074
     75 O13         6.1970    1.4720    0.9520 o         1 MOL     -0.481898
     76 H32         7.3990   -0.6400   -1.7200 hn        1 MOL      0.233277
     77 H33         7.5880    1.7870   -1.9190 h1        1 MOL      0.066982
     78 H34         8.7750    1.6420   -0.7370 h1        1 MOL      0.066982
     79 N8          6.3500    3.3100   -0.3690 n         1 MOL     -0.431820
     80 C25         5.4620    4.1990    0.3610 c3        1 MOL     -0.075717
     81 C26         3.9780    3.7230    0.4010 c         1 MOL      0.625122
     82 O14         3.3680    3.5120   -0.6910 o         1 MOL     -0.485360
     83 C27         5.4980    5.6460   -0.0990 c3        1 MOL      0.473014
     84 C28         4.8020    6.0170   -1.4560 c3        1 MOL     -0.433382
     85 O15         6.7930    6.0870   -0.3570 oh        1 MOL     -0.598903
     86 H35         6.8270    3.6930   -1.1670 hn        1 MOL      0.259012
     87 H36         5.7890    4.2480    1.4040 h1        1 MOL      0.062512
     88 H37         5.0850    6.2330    0.7230 h1        1 MOL     -0.032266
     89 H38         7.2760    6.0260    0.4670 ho        1 MOL      0.365877
     90 H39         5.1370    7.0360   -1.6430 hc        1 MOL      0.125682
     91 H40         5.1020    5.2420   -2.1690 hc        1 MOL      0.125682
     92 H41         3.7060    5.9870   -1.4300 hc        1 MOL      0.125682
     93 N9          3.4370    3.7150    1.6340 n         1 MOL     -0.601107
     94 C29         2.0210    3.5380    1.9750 c3        1 MOL     -0.057648
     95 C30         1.2570    4.6510    1.2630 c         1 MOL      0.280979
     96 O16         1.7040    5.8470    1.2630 o         1 MOL     -0.496995
     97 C31         1.7730    3.4950    3.5220 c3        1 MOL      0.496354
     98 C32         2.6110    2.3940    4.2500 c3        1 MOL      0.175384
     99 C33         0.2690    3.1630    3.8310 c3        1 MOL     -0.554546
    100 C34         2.4750    2.5440    5.7740 c3        1 MOL     -0.422913
    101 H42         4.0050    3.9610    2.4400 hn        1 MOL      0.296910
    102 H43         1.6390    2.5640    1.6900 h1        1 MOL      0.074607
    103 H44         2.0680    4.4450    3.9640 hc        1 MOL     -0.080433
    104 H45         3.6320    2.6100    3.9650 hc        1 MOL     -0.029860
    105 H46         2.3640    1.4150    3.8440 hc        1 MOL     -0.029860
    106 H47         0.0080    3.3250    4.8750 hc        1 MOL      0.115012
    107 H48        -0.3510    3.8320    3.2500 hc        1 MOL      0.115012
    108 H49         0.0500    2.1630    3.4560 hc        1 MOL      0.115012
    109 H50         2.2790    3.5800    6.0440 hc        1 MOL      0.101997
    110 H51         1.5760    2.0900    6.1830 hc        1 MOL      0.101997
    111 H52         3.4210    2.1720    6.1710 hc        1 MOL      0.101997
    112 N10         0.1130    4.3900    0.7010 n         1 MOL      0.022196
    113 C35        -0.8080    5.3300   -0.0290 c3        1 MOL     -0.399429
    114 C36        -2.3490    4.9890    0.2120 c         1 MOL      0.552220
    115 O17        -3.1710    5.8500    0.0180 o         1 MOL     -0.503708
    116 C37        -0.6180    5.4560   -1.5290 c3        1 MOL      0.499706
    117 C38        -0.7140    4.1150   -2.2320 c3        1 MOL     -0.316810
    118 O18         0.5660    6.0200   -1.7010 oh        1 MOL     -0.646207
    119 H53        -0.0490    3.4120    0.4860 hn        1 MOL      0.151940
    120 H54        -0.6600    6.3020    0.4460 h1        1 MOL      0.175464
    121 H55        -1.4430    6.0210   -1.9600 h1        1 MOL      0.036565
    122 H56         1.2760    5.5380   -1.2630 ho        1 MOL      0.383598
    123 H57        -1.6290    3.5590   -1.9900 hc        1 MOL      0.090943
    124 H58        -0.6060    4.3620   -3.2870 hc        1 MOL      0.090943
    125 H59         0.0870    3.4690   -1.8710 hc        1 MOL      0.090943
    126 N11        -2.6620    3.8000    0.7840 n         1 MOL     -0.552200
    127 C39        -3.9720    3.3840    1.2370 c3        1 MOL      0.037808
    128 C40        -4.9660    3.0900    0.0810 c         1 MOL      0.363503
    129 O19        -4.7310    3.4560   -1.0510 o         1 MOL     -0.400917
    130 C41        -4.6190    4.4060    2.1960 c3        1 MOL      0.448402
    131 C42        -3.7180    4.8590    3.3610 c3        1 MOL     -0.618689
    132 O20        -5.7210    3.7610    2.8590 oh        1 MOL     -0.712181
    133 H60        -1.8760    3.1640    0.8200 hn        1 MOL      0.348751
    134 H61        -3.8470    2.4400    1.7780 h1        1 MOL      0.079378
    135 H62        -4.9870    5.2810    1.6720 h1        1 MOL      0.039577
    136 H63        -5.9950    4.3640    3.5530 ho        1 MOL      0.397755
    137 H64        -3.1560    4.0180    3.7500 hc        1 MOL      0.163844
    138 H65        -3.1610    5.6850    2.9130 hc        1 MOL      0.163844
    139 H66        -4.3380    5.0110    4.2540 hc        1 MOL      0.163844
    140 N12        -6.0010    2.3750    0.4240 n         1 MOL     -0.259121
    141 C43        -7.1660    2.1040   -0.4380 c3        1 MOL     -0.151755
    142 C44        -6.9530    1.0500   -1.4940 c         1 MOL      0.437558
    143 O21        -7.6830    1.0510   -2.5400 o         1 MOL     -0.521140
    144 C45        -8.3690    1.7360    0.4000 c3        1 MOL      0.007924
    145 C46        -8.3030    0.3940    1.2520 c3        1 MOL     -0.000523
    146 C47        -9.4900    0.0270    2.1360 c3        1 MOL     -0.043233
    147 C48        -9.4380    0.9500    3.3030 c3        1 MOL      0.057374
    148 N13       -10.6480    0.7290    4.1150 n4        1 MOL     -0.371759
    149 H67        -6.0210    2.2000    1.4230 hn        1 MOL      0.232291
    150 H68        -7.4040    3.0730   -0.8700 h1        1 MOL      0.174666
    151 H69        -9.3210    1.8100   -0.1240 hc        1 MOL      0.011447
    152 H70        -8.4510    2.4250    1.2390 hc        1 MOL      0.011447
    153 H71        -7.4070    0.3410    1.8730 hc        1 MOL      0.034945
    154 H72        -8.2070   -0.4770    0.6030 hc        1 MOL      0.034945
    155 H73        -9.4500   -1.0100    2.4860 hc        1 MOL      0.050733
    156 H74       -10.4070    0.1680    1.5620 hc        1 MOL      0.050733
    157 H75        -9.3470    2.0030    3.0620 hx        1 MOL      0.083918
    158 H76        -8.5890    0.6070    3.9060 hx        1 MOL      0.083918
    159 H77       -11.4070    0.8380    3.4560 hn        1 MOL      0.293788
    160 H78       -10.6730   -0.1800    4.5550 hn        1 MOL      0.293788
    161 H79       -10.7680    1.3940    4.8690 hn        1 MOL      0.293788
    162 N14        -6.0600    0.0850   -1.3280 n         1 MOL     -0.282603
    163 C49        -5.5600   -0.8150   -2.3750 c3        1 MOL     -0.071329
    164 C50        -6.4390   -2.0820   -2.5090 c         1 MOL      0.324410
    165 O22        -6.0330   -3.1580   -2.1240 o         1 MOL     -0.432423
    166 C51        -4.0840   -1.1070   -2.0880 c3        1 MOL      0.254697
    167 C52        -3.1450    0.1090   -2.4200 c3        1 MOL     -0.265396
    168 C53        -3.0190    0.2910   -3.9690 c         1 MOL      0.623522
    169 O23        -1.9720   -0.1650   -4.5790 o         1 MOL     -0.712146
    170 O24        -3.8470    0.9720   -4.5860 o         1 MOL     -0.712146
    171 H80        -5.7270    0.0720   -0.3790 hn        1 MOL      0.204024
    172 H81        -5.4880   -0.3290   -3.3460 h1        1 MOL      0.209324
    173 H82        -3.8940   -1.9720   -2.7150 hc        1 MOL     -0.025098
    174 H83        -3.9700   -1.3040   -1.0180 hc        1 MOL     -0.025098
    175 H84        -2.1810    0.0110   -1.9120 hc        1 MOL      0.053854
    176 H85        -3.4970    1.0280   -1.9460 hc        1 MOL      0.053854
    177 N15        -7.7100   -1.8820   -2.9130 n         1 MOL     -0.268052
    178 C54        -8.6680   -2.9820   -3.0390 c3        1 MOL      0.037916
    179 H86        -9.0730   -2.9970   -4.0520 h1        1 MOL      0.027343
    180 H87        -8.1660   -3.9280   -2.8360 h1        1 MOL      0.027343
    181 H88        -9.4800   -2.8410   -2.3270 h1        1 MOL      0.027343
    182 H89        -7.9620   -0.9360   -3.1360 hn        1 MOL      0.219705
    183 Ca1         0.5940   -0.1420   -4.3110 Ca        1 MOL      1.693547
    184 O25         2.8760   -0.2360   -5.6140 oh        1 MOL     -0.810783
    185 O26         1.9720   -2.6220   -4.3010 oh        1 MOL     -0.810783
    186 H90         3.7400    0.1740   -5.5930 ho        1 MOL      0.401909
    187 H91         2.4330   -2.8260   -3.4970 ho        1 MOL      0.401909
    188 H92         3.0510   -1.1730   -5.6470 ho        1 MOL      0.401909
    189 H93         2.6130   -2.7710   -4.9990 ho        1 MOL      0.401909
    190 O27         1.6240    2.3780   -4.2090 oh        1 MOL     -0.810783
    191 H94         2.4900    2.7330   -4.0340 ho        1 MOL      0.401909
    192 H95         1.3340    2.8170   -5.0150 ho        1 MOL      0.401909
    193 O28        -0.5250   -2.1480   -2.9210 oh        1 MOL     -0.810783
    194 H96        -0.7090   -1.9890   -2.0050 ho        1 MOL      0.401909
    195 H97        -1.2400   -2.7200   -3.2060 ho        1 MOL      0.401909
@<TRIPOS>BOND
     1    1    2 1   
     2    1    4 1   
     3    1    5 1   
     4    1    6 1   
     5    2    3 2   
     6    2    7 1   
     7    7    8 1   
     8    7   15 1   
     9    8    9 1   
    10    8   11 1   
    11    8   16 1   
    12    9   10 2   
    13    9   19 1   
    14   11   12 1   
    15   11   17 1   
    16   11   18 1   
    17   12   13 1   
    18   12   14 1   
    19   19   20 1   
    20   19   28 1   
    21   20   21 1   
    22   20   23 1   
    23   20   29 1   
    24   21   22 2   
    25   21   41 1   
    26   23   24 1   
    27   23   30 1   
    28   23   31 1   
    29   24   25 1   
    30   24   32 1   
    31   24   33 1   
    32   25   26 1   
    33   25   34 1   
    34   25   35 1   
    35   26   27 1   
    36   26   36 1   
    37   26   37 1   
    38   27   38 1   
    39   27   39 1   
    40   27   40 1   
    41   41   42 1   
    42   41   49 1   
    43   42   43 1   
    44   42   45 1   
    45   42   50 1   
    46   43   44 2   
    47   43   53 1   
    48   45   46 1   
    49   45   51 1   
    50   45   52 1   
    51   46   47 1   
    52   46   48 1   
    53   53   54 1   
    54   53   57 1   
    55   54   55 1   
    56   54   58 1   
    57   54   59 1   
    58   55   56 2   
    59   55   60 1   
    60   60   61 1   
    61   60   68 1   
    62   61   62 1   
    63   61   64 1   
    64   61   69 1   
    65   62   63 2   
    66   62   72 1   
    67   64   65 1   
    68   64   70 1   
    69   64   71 1   
    70   65   66 1   
    71   65   67 1   
    72   72   73 1   
    73   72   76 1   
    74   73   74 1   
    75   73   77 1   
    76   73   78 1   
    77   74   75 2   
    78   74   79 1   
    79   79   80 1   
    80   79   86 1   
    81   80   81 1   
    82   80   83 1   
    83   80   87 1   
    84   81   82 2   
    85   81   93 1   
    86   83   84 1   
    87   83   85 1   
    88   83   88 1   
    89   84   90 1   
    90   84   91 1   
    91   84   92 1   
    92   85   89 1   
    93   93   94 1   
    94   93  101 1   
    95   94   95 1   
    96   94   97 1   
    97   94  102 1   
    98   95   96 2   
    99   95  112 1   
   100   97   98 1   
   101   97   99 1   
   102   97  103 1   
   103   98  100 1   
   104   98  104 1   
   105   98  105 1   
   106   99  106 1   
   107   99  107 1   
   108   99  108 1   
   109  100  109 1   
   110  100  110 1   
   111  100  111 1   
   112  112  113 1   
   113  112  119 1   
   114  113  114 1   
   115  113  116 1   
   116  113  120 1   
   117  114  115 2   
   118  114  126 1   
   119  116  117 1   
   120  116  118 1   
   121  116  121 1   
   122  117  123 1   
   123  117  124 1   
   124  117  125 1   
   125  118  122 1   
   126  126  127 1   
   127  126  133 1   
   128  127  128 1   
   129  127  130 1   
   130  127  134 1   
   131  128  129 2   
   132  128  140 1   
   133  130  131 1   
   134  130  132 1   
   135  130  135 1   
   136  131  137 1   
   137  131  138 1   
   138  131  139 1   
   139  132  136 1   
   140  140  141 1   
   141  140  149 1   
   142  141  142 1   
   143  141  144 1   
   144  141  150 1   
   145  142  143 2   
   146  142  162 1   
   147  144  145 1   
   148  144  151 1   
   149  144  152 1   
   150  145  146 1   
   151  145  153 1   
   152  145  154 1   
   153  146  147 1   
   154  146  155 1   
   155  146  156 1   
   156  147  148 1   
   157  147  157 1   
   158  147  158 1   
   159  148  159 1   
   160  148  160 1   
   161  148  161 1   
   162  162  163 1   
   163  162  171 1   
   164  163  164 1   
   165  163  166 1   
   166  163  172 1   
   167  164  165 2   
   168  164  177 1   
   169  166  167 1   
   170  166  173 1   
   171  166  174 1   
   172  167  168 1   
   173  167  175 1   
   174  167  176 1   
   175  168  169 1   
   176  168  170 1   
   177  177  178 1   
   178  177  182 1   
   179  178  179 1   
   180  178  180 1   
   181  178  181 1   
   182  184  186 1   
   183  184  188 1   
   184  185  187 1   
   185  185  189 1   
   186  190  191 1   
   187  190  192 1   
   188  193  194 1   
   189  193  195 1   
@<TRIPOS>SUBSTRUCTURE
     1 MOL         1 TEMP              0 ****  ****    0 ROOT
