@<TRIPOS>MOLECULE
MOL
  198   191     1     0     0
SMALL
resp


@<TRIPOS>ATOM
      1 C1         -3.7470   -5.8220    0.3670 c3        1 MOL     -0.415704
      2 C2         -5.2870   -5.6300    0.2500 c         1 MOL      0.689933
      3 O1         -6.0660   -6.4020    0.8210 o         1 MOL     -0.572152
      4 H1         -3.5260   -6.8680    0.5830 hc        1 MOL      0.107193
      5 H2         -3.2720   -5.5390   -0.5730 hc        1 MOL      0.107193
      6 H3         -3.3620   -5.1970    1.1730 hc        1 MOL      0.107193
      7 N1         -5.6640   -4.6990   -0.6420 n         1 MOL     -0.687770
      8 C3         -7.0540   -4.2200   -0.9160 c3        1 MOL      0.387614
      9 C4         -7.7200   -3.5300    0.3090 c         1 MOL      0.552889
     10 O2         -7.1310   -3.4870    1.3630 o         1 MOL     -0.492162
     11 C5         -7.8530   -5.3800   -1.6350 c3        1 MOL     -0.521965
     12 C6         -8.9720   -4.8770   -2.6130 c         1 MOL      0.729289
     13 O3         -9.2880   -3.7230   -2.7280 o         1 MOL     -0.714797
     14 O4         -9.6290   -5.8420   -3.1160 o         1 MOL     -0.714797
     15 H4         -4.9030   -4.2470   -1.1430 hn        1 MOL      0.320868
     16 H5         -6.9480   -3.4080   -1.6350 h1        1 MOL      0.021832
     17 H6         -8.2810   -6.1370   -0.9760 hc        1 MOL      0.133832
     18 H7         -7.0990   -5.7950   -2.3180 hc        1 MOL      0.133832
     19 N2         -8.9260   -2.9210    0.0640 n         1 MOL     -0.512999
     20 C7         -9.6140   -1.9890    0.9210 c3        1 MOL      0.097311
     21 C8         -8.6990   -0.8840    1.4930 c         1 MOL      0.531816
     22 O5         -9.1230   -0.2520    2.4170 o         1 MOL     -0.551944
     23 C9        -10.4000   -2.7360    1.9570 c3        1 MOL     -0.087719
     24 C10       -11.3960   -3.7420    1.3730 c3        1 MOL      0.022922
     25 C11       -12.3290   -4.2410    2.4840 c3        1 MOL     -0.006912
     26 C12       -13.4390   -5.0790    1.9410 c3        1 MOL     -0.017278
     27 N3        -12.9900   -6.3960    1.4620 n4        1 MOL     -0.383087
     28 H8         -9.1830   -2.8650   -0.9100 hn        1 MOL      0.273725
     29 H9        -10.3600   -1.5420    0.2680 h1        1 MOL      0.080549
     30 H10       -11.0080   -2.0580    2.5490 hc        1 MOL      0.052875
     31 H11        -9.6600   -3.3070    2.5140 hc        1 MOL      0.052875
     32 H12       -10.8160   -4.6070    1.0420 hc        1 MOL      0.017831
     33 H13       -12.0740   -3.3130    0.6290 hc        1 MOL      0.017831
     34 H14       -12.7900   -3.4000    2.9980 hc        1 MOL      0.032976
     35 H15       -11.8640   -4.7770    3.3050 hc        1 MOL      0.032976
     36 H16       -13.8570   -4.5660    1.0830 hx        1 MOL      0.095435
     37 H17       -14.2930   -5.2060    2.6200 hx        1 MOL      0.095435
     38 H18       -13.7240   -6.8690    0.9460 hn        1 MOL      0.336469
     39 H19       -12.1680   -6.2400    0.9040 hn        1 MOL      0.336469
     40 H20       -12.6830   -7.0390    2.1860 hn        1 MOL      0.336469
     41 N4         -7.6000   -0.6110    0.7930 n         1 MOL     -0.638233
     42 C13        -6.6350    0.4570    1.0770 c3        1 MOL      0.652794
     43 C14        -6.0000    0.8970   -0.2650 c         1 MOL      0.266155
     44 O6         -5.1720    0.2230   -0.8550 o         1 MOL     -0.526142
     45 C15        -5.6410    0.1520    2.1700 c3        1 MOL     -0.389397
     46 C16        -4.6250    1.3750    2.2910 c         1 MOL      0.571927
     47 O7         -4.7910    2.4900    1.7590 o         1 MOL     -0.621080
     48 O8         -3.5860    1.1850    3.0230 o         1 MOL     -0.621080
     49 H21        -7.3340   -1.3230    0.1350 hn        1 MOL      0.243096
     50 H22        -7.1920    1.3050    1.4800 h1        1 MOL     -0.031237
     51 H23        -5.1760   -0.8280    2.0270 hc        1 MOL      0.105361
     52 H24        -6.2770   -0.0360    3.0340 hc        1 MOL      0.105361
     53 N5         -6.4840    2.0210   -0.8480 n         1 MOL     -0.254862
     54 C17        -7.2800    3.2020   -0.4360 c3        1 MOL     -0.280428
     55 C18        -6.4660    4.5490   -0.7180 c         1 MOL      0.610693
     56 O9         -6.8470    5.4850   -1.3870 o         1 MOL     -0.544417
     57 H25        -6.1140    2.0490   -1.7810 hn        1 MOL      0.257702
     58 H26        -7.7260    3.1500    0.5520 h1        1 MOL      0.129491
     59 H27        -8.1190    3.0630   -1.1170 h1        1 MOL      0.129491
     60 N6         -5.2160    4.5320   -0.2210 n         1 MOL     -0.286286
     61 C19        -4.1390    5.5120   -0.6130 c3        1 MOL      0.036652
     62 C20        -2.6850    4.9200   -0.5320 c         1 MOL      0.157313
     63 O10        -2.3750    3.8160    0.0050 o         1 MOL     -0.489486
     64 C21        -4.1430    6.7970    0.2500 c3        1 MOL     -0.011229
     65 C22        -4.0700    6.5280    1.7480 c         1 MOL      0.566736
     66 O11        -4.9900    7.0620    2.4080 o         1 MOL     -0.646694
     67 O12        -3.2640    5.7270    2.1950 o         1 MOL     -0.646694
     68 H28        -4.8760    3.7020    0.2440 hn        1 MOL      0.195932
     69 H29        -4.2090    6.0250   -1.5760 h1        1 MOL      0.055458
     70 H30        -5.0100    7.3920   -0.0260 hc        1 MOL      0.011254
     71 H31        -3.2710    7.4270    0.0490 hc        1 MOL      0.011254
     72 N7         -1.7910    5.5050   -1.3160 n         1 MOL     -0.161417
     73 C23        -0.4100    5.0290   -1.4460 c3        1 MOL     -0.232999
     74 C24        -0.3390    3.7920   -2.3970 c         1 MOL      0.584261
     75 O13         0.7180    3.5090   -2.9570 o         1 MOL     -0.554913
     76 H32        -2.0520    6.3230   -1.8460 hn        1 MOL      0.263886
     77 H33        -0.0650    4.6530   -0.4730 h1        1 MOL      0.116655
     78 H34         0.1940    5.8680   -1.7800 h1        1 MOL      0.116655
     79 N8         -1.4730    3.1020   -2.6230 n         1 MOL     -0.418728
     80 C25        -1.5590    1.8150   -3.3140 c3        1 MOL     -0.079515
     81 C26        -1.0330    0.6690   -2.4200 c         1 MOL      0.713575
     82 O14        -1.5090    0.5160   -1.2470 o         1 MOL     -0.601189
     83 C27        -2.9560    1.6390   -3.8420 c3        1 MOL      0.335814
     84 C28        -3.1910    0.2130   -4.1740 c3        1 MOL     -0.463980
     85 O15        -3.9950    2.0120   -3.0450 oh        1 MOL     -0.569832
     86 H35        -2.3290    3.4940   -2.2660 hn        1 MOL      0.235108
     87 H36        -0.9130    1.7710   -4.1980 h1        1 MOL      0.040011
     88 H37        -3.1130    2.2070   -4.7610 h1        1 MOL      0.050553
     89 H38        -3.9030    1.4610   -2.2660 ho        1 MOL      0.441217
     90 H39        -3.3070   -0.3540   -3.2540 hc        1 MOL      0.117343
     91 H40        -4.1190    0.1550   -4.7380 hc        1 MOL      0.117343
     92 H41        -2.3760   -0.1530   -4.8050 hc        1 MOL      0.117343
     93 N9         -0.1690   -0.1620   -2.9400 n         1 MOL     -0.259657
     94 C29         0.6060   -1.1530   -2.1530 c3        1 MOL     -0.394718
     95 C30         1.8460   -0.6410   -1.5330 c         1 MOL      0.620453
     96 O16         2.2940   -1.3430   -0.6120 o         1 MOL     -0.543018
     97 C31         0.7840   -2.5320   -2.8870 c3        1 MOL      0.217618
     98 C32         1.6830   -2.5560   -4.1290 c3        1 MOL      0.060443
     99 C33        -0.6980   -2.9400   -3.2840 c3        1 MOL     -0.306419
    100 C34         2.1710   -3.9510   -4.5830 c3        1 MOL     -0.150311
    101 H42         0.1290   -0.0090   -3.8930 hn        1 MOL      0.251205
    102 H43        -0.0740   -1.4040   -1.3380 h1        1 MOL      0.180614
    103 H44         1.2870   -3.2730   -2.2780 hc        1 MOL      0.032963
    104 H45         2.6150   -2.0770   -3.8170 hc        1 MOL     -0.007523
    105 H46         1.2850   -2.0070   -4.9770 hc        1 MOL     -0.007523
    106 H47        -0.7630   -4.0190   -3.3560 hc        1 MOL      0.067732
    107 H48        -1.3830   -2.5090   -2.5460 hc        1 MOL      0.067732
    108 H49        -0.9990   -2.5110   -4.2370 hc        1 MOL      0.067732
    109 H50         1.4370   -4.7390   -4.7630 hc        1 MOL      0.042943
    110 H51         2.7620   -3.8750   -5.5010 hc        1 MOL      0.042943
    111 H52         2.8750   -4.3580   -3.8610 hc        1 MOL      0.042943
    112 N10         2.4020    0.5390   -1.9240 n         1 MOL     -0.493922
    113 C35         3.7260    1.0130   -1.4660 c3        1 MOL      0.125584
    114 C36         4.7540    0.2350   -2.3480 c         1 MOL      0.660221
    115 O17         4.5580    0.1450   -3.5920 o         1 MOL     -0.603082
    116 C37         3.8110    2.5100   -1.5890 c3        1 MOL      0.358245
    117 C38         3.0900    3.1980   -0.4350 c3        1 MOL     -0.297126
    118 O18         5.1350    2.9410   -1.4680 oh        1 MOL     -0.614299
    119 H53         1.8950    1.1580   -2.5460 hn        1 MOL      0.226625
    120 H54         3.8220    0.6570   -0.4350 h1        1 MOL      0.036515
    121 H55         3.4740    2.7330   -2.6040 h1        1 MOL      0.026658
    122 H56         5.6010    2.9730   -2.3070 ho        1 MOL      0.369165
    123 H57         2.0240    2.9550   -0.4820 hc        1 MOL      0.078927
    124 H58         3.5640    3.0930    0.5440 hc        1 MOL      0.078927
    125 H59         3.1900    4.2620   -0.6260 hc        1 MOL      0.078927
    126 N11         5.9690    0.0860   -1.8360 n         1 MOL     -0.664854
    127 C39         7.1010   -0.1160   -2.7540 c3        1 MOL      0.190903
    128 C40         8.2810   -0.8450   -2.0700 c         1 MOL      0.597581
    129 O19         8.8050   -1.8000   -2.6150 o         1 MOL     -0.572838
    130 C41         7.5060    1.2370   -3.3670 c3        1 MOL      0.186886
    131 C42         8.8150    1.0570   -4.1800 c3        1 MOL     -0.451438
    132 O20         7.8900    2.1810   -2.4130 oh        1 MOL     -0.633746
    133 H60         6.1910    0.3250   -0.8760 hn        1 MOL      0.309110
    134 H61         6.8810   -0.7830   -3.5930 h1        1 MOL      0.081415
    135 H62         6.7290    1.6920   -3.9800 h1        1 MOL      0.090699
    136 H63         8.4900    2.8240   -2.7930 ho        1 MOL      0.419918
    137 H64         9.0240    2.0460   -4.5880 hc        1 MOL      0.121220
    138 H65         9.6720    0.7370   -3.5930 hc        1 MOL      0.121220
    139 H66         8.6290    0.2950   -4.9360 hc        1 MOL      0.121220
    140 N12         8.5340   -0.5390   -0.8270 n         1 MOL     -0.448325
    141 C43         9.6900   -0.9990   -0.0330 c3        1 MOL      0.189019
    142 C44         9.3370   -0.9150    1.4630 c         1 MOL      0.272576
    143 O21         8.3500   -0.3220    1.8680 o         1 MOL     -0.479099
    144 C45        10.8990   -0.1670   -0.3150 c3        1 MOL     -0.079152
    145 C46        11.9200   -0.8410   -1.2760 c3        1 MOL      0.060996
    146 C47        13.3040   -0.0690   -1.4430 c3        1 MOL     -0.054157
    147 C48        14.0450   -0.0820   -0.0750 c3        1 MOL     -0.110110
    148 N13        14.3680   -1.4250    0.4270 n4        1 MOL     -0.225720
    149 H67         8.2240    0.3360   -0.4450 hn        1 MOL      0.277134
    150 H68         9.7980   -2.0700   -0.1940 h1        1 MOL      0.095535
    151 H69        11.4640    0.0570    0.5900 hc        1 MOL      0.019912
    152 H70        10.5380    0.7190   -0.8280 hc        1 MOL      0.019912
    153 H71        11.4790   -0.9200   -2.2700 hc        1 MOL     -0.020658
    154 H72        12.1060   -1.8310   -0.8460 hc        1 MOL     -0.020658
    155 H73        13.1350    0.9610   -1.7570 hc        1 MOL      0.063977
    156 H74        13.9700   -0.5270   -2.1610 hc        1 MOL      0.063977
    157 H75        13.4060    0.3860    0.6850 hx        1 MOL      0.097120
    158 H76        14.9390    0.5220   -0.2340 hx        1 MOL      0.097120
    159 H77        13.5740   -1.9990    0.6500 hn        1 MOL      0.283381
    160 H78        14.8540   -1.9100   -0.3190 hn        1 MOL      0.283381
    161 H79        15.0630   -1.4510    1.1630 hn        1 MOL      0.283381
    162 N14        10.0640   -1.7400    2.2430 n         1 MOL     -0.086398
    163 C49         9.9430   -1.7830    3.7220 c3        1 MOL      0.084449
    164 C50         8.5940   -2.1740    4.4690 c         1 MOL      0.325142
    165 O22         8.5340   -1.8220    5.6570 o         1 MOL     -0.520500
    166 C51        10.9790   -2.7440    4.3290 c3        1 MOL     -0.345460
    167 C52        12.3900   -2.6060    3.7470 c3        1 MOL      0.102124
    168 C53        12.6790   -3.5440    2.6570 c         1 MOL      0.502374
    169 O23        12.2310   -3.2220    1.5260 o         1 MOL     -0.609716
    170 O24        13.1650   -4.6460    2.8820 o         1 MOL     -0.609716
    171 H80        10.7130   -2.3740    1.8030 hn        1 MOL      0.117906
    172 H81        10.1950   -0.7700    4.0450 h1        1 MOL      0.047416
    173 H82        10.6860   -3.7930    4.2510 hc        1 MOL      0.150825
    174 H83        11.0260   -2.7300    5.4130 hc        1 MOL      0.150825
    175 H84        13.1730   -2.7290    4.5080 hc        1 MOL     -0.037091
    176 H85        12.5410   -1.6140    3.3290 hc        1 MOL     -0.037091
    177 N15         7.6360   -2.8410    3.8510 n         1 MOL     -0.277879
    178 C54         7.5090   -3.4500    2.5130 c3        1 MOL     -0.027405
    179 H86         8.0030   -2.8140    1.7770 h1        1 MOL      0.056779
    180 H87         7.9780   -4.4340    2.5160 h1        1 MOL      0.056779
    181 H88         6.4540   -3.5500    2.2570 h1        1 MOL      0.056779
    182 H89         6.8920   -3.0160    4.5140 hn        1 MOL      0.268100
    183 Ca1        -2.3010    3.4090    2.6020 Ca        1 MOL      1.717653
    184 O25        -0.9730    1.3560    1.2890 oh        1 MOL     -0.824580
    185 H90        -1.3080    1.1360    0.4210 ho        1 MOL      0.407971
    186 H91        -0.4070    0.6130    1.5150 ho        1 MOL      0.407971
    187 O26        -3.9540    3.4300    4.7470 oh        1 MOL     -0.824580
    188 H92        -4.6740    4.0570    4.8240 ho        1 MOL      0.407971
    189 H93        -3.7220    3.2180    5.6530 ho        1 MOL      0.407971
    190 O27        -1.3460    5.2360    4.9940 oh        1 MOL     -0.824580
    191 H94        -0.4470    5.2440    5.3330 ho        1 MOL      0.407971
    192 H95        -1.7140    6.0640    5.2920 ho        1 MOL      0.407971
    193 O28        -0.9880    2.1570    4.4510 oh        1 MOL     -0.824580
    194 H96        -0.7080    2.9320    4.9480 ho        1 MOL      0.407971
    195 H97        -0.3430    1.4850    4.6720 ho        1 MOL      0.407971
    196 O29         0.2430    4.2430    2.1920 oh        1 MOL     -0.824580
    197 H98         0.9720    3.6300    2.3310 ho        1 MOL      0.407971
    198 H99         0.6570    5.1060    2.1610 ho        1 MOL      0.407971
@<TRIPOS>BOND
     1    1    2 1   
     2    1    4 1   
     3    1    5 1   
     4    1    6 1   
     5    2    3 2   
     6    2    7 1   
     7    7    8 1   
     8    7   15 1   
     9    8    9 1   
    10    8   11 1   
    11    8   16 1   
    12    9   10 2   
    13    9   19 1   
    14   11   12 1   
    15   11   17 1   
    16   11   18 1   
    17   12   13 1   
    18   12   14 1   
    19   19   20 1   
    20   19   28 1   
    21   20   21 1   
    22   20   23 1   
    23   20   29 1   
    24   21   22 2   
    25   21   41 1   
    26   23   24 1   
    27   23   30 1   
    28   23   31 1   
    29   24   25 1   
    30   24   32 1   
    31   24   33 1   
    32   25   26 1   
    33   25   34 1   
    34   25   35 1   
    35   26   27 1   
    36   26   36 1   
    37   26   37 1   
    38   27   38 1   
    39   27   39 1   
    40   27   40 1   
    41   41   42 1   
    42   41   49 1   
    43   42   43 1   
    44   42   45 1   
    45   42   50 1   
    46   43   44 2   
    47   43   53 1   
    48   45   46 1   
    49   45   51 1   
    50   45   52 1   
    51   46   47 1   
    52   46   48 1   
    53   53   54 1   
    54   53   57 1   
    55   54   55 1   
    56   54   58 1   
    57   54   59 1   
    58   55   56 2   
    59   55   60 1   
    60   60   61 1   
    61   60   68 1   
    62   61   62 1   
    63   61   64 1   
    64   61   69 1   
    65   62   63 2   
    66   62   72 1   
    67   64   65 1   
    68   64   70 1   
    69   64   71 1   
    70   65   66 1   
    71   65   67 1   
    72   72   73 1   
    73   72   76 1   
    74   73   74 1   
    75   73   77 1   
    76   73   78 1   
    77   74   75 2   
    78   74   79 1   
    79   79   80 1   
    80   79   86 1   
    81   80   81 1   
    82   80   83 1   
    83   80   87 1   
    84   81   82 2   
    85   81   93 1   
    86   83   84 1   
    87   83   85 1   
    88   83   88 1   
    89   84   90 1   
    90   84   91 1   
    91   84   92 1   
    92   85   89 1   
    93   93   94 1   
    94   93  101 1   
    95   94   95 1   
    96   94   97 1   
    97   94  102 1   
    98   95   96 2   
    99   95  112 1   
   100   97   98 1   
   101   97   99 1   
   102   97  103 1   
   103   98  100 1   
   104   98  104 1   
   105   98  105 1   
   106   99  106 1   
   107   99  107 1   
   108   99  108 1   
   109  100  109 1   
   110  100  110 1   
   111  100  111 1   
   112  112  113 1   
   113  112  119 1   
   114  113  114 1   
   115  113  116 1   
   116  113  120 1   
   117  114  115 2   
   118  114  126 1   
   119  116  117 1   
   120  116  118 1   
   121  116  121 1   
   122  117  123 1   
   123  117  124 1   
   124  117  125 1   
   125  118  122 1   
   126  126  127 1   
   127  126  133 1   
   128  127  128 1   
   129  127  130 1   
   130  127  134 1   
   131  128  129 2   
   132  128  140 1   
   133  130  131 1   
   134  130  132 1   
   135  130  135 1   
   136  131  137 1   
   137  131  138 1   
   138  131  139 1   
   139  132  136 1   
   140  140  141 1   
   141  140  149 1   
   142  141  142 1   
   143  141  144 1   
   144  141  150 1   
   145  142  143 2   
   146  142  162 1   
   147  144  145 1   
   148  144  151 1   
   149  144  152 1   
   150  145  146 1   
   151  145  153 1   
   152  145  154 1   
   153  146  147 1   
   154  146  155 1   
   155  146  156 1   
   156  147  148 1   
   157  147  157 1   
   158  147  158 1   
   159  148  159 1   
   160  148  160 1   
   161  148  161 1   
   162  162  163 1   
   163  162  171 1   
   164  163  164 1   
   165  163  166 1   
   166  163  172 1   
   167  164  165 2   
   168  164  177 1   
   169  166  167 1   
   170  166  173 1   
   171  166  174 1   
   172  167  168 1   
   173  167  175 1   
   174  167  176 1   
   175  168  169 1   
   176  168  170 1   
   177  177  178 1   
   178  177  182 1   
   179  178  179 1   
   180  178  180 1   
   181  178  181 1   
   182  184  185 1   
   183  184  186 1   
   184  187  188 1   
   185  187  189 1   
   186  190  191 1   
   187  190  192 1   
   188  193  194 1   
   189  193  195 1   
   190  196  197 1   
   191  196  198 1   
@<TRIPOS>SUBSTRUCTURE
     1 MOL         1 TEMP              0 ****  ****    0 ROOT
