@<TRIPOS>MOLECULE
MOL
  194   186     1     0     0
SMALL
resp


@<TRIPOS>ATOM
      1 C1          1.3320    1.8270    3.0720 c3        1 MOL     -0.397982
      2 C2          2.5310    1.7300    2.0960 c         1 MOL      0.691821
      3 O1          2.5930    2.4950    1.1250 o         1 MOL     -0.525178
      4 H1          1.0580    0.8280    3.4100 hc        1 MOL      0.109329
      5 H2          1.6110    2.4370    3.9310 hc        1 MOL      0.109329
      6 H3          0.4830    2.2830    2.5620 hc        1 MOL      0.109329
      7 N1          3.4680    0.8760    2.5480 n         1 MOL     -0.656431
      8 C3          4.7190    0.7310    1.8110 c3        1 MOL      0.068401
      9 C4          5.3530   -0.6730    1.8150 c         1 MOL      0.422954
     10 O2          6.3680   -0.9180    1.1210 o         1 MOL     -0.481161
     11 C5          5.7910    1.7910    2.2700 c3        1 MOL      0.019453
     12 C6          6.0010    2.0580    3.7630 c         1 MOL      0.724576
     13 O3          5.3650    1.4130    4.6040 o         1 MOL     -0.730347
     14 O4          7.0450    2.6830    4.0660 o         1 MOL     -0.730347
     15 H4          3.4930    0.5470    3.4930 hn        1 MOL      0.333908
     16 H5          4.5270    0.9100    0.7550 h1        1 MOL      0.082292
     17 H6          5.5240    2.7670    1.8730 hc        1 MOL     -0.016054
     18 H7          6.7320    1.6610    1.7340 hc        1 MOL     -0.016054
     19 N2          4.7600   -1.6680    2.4680 n         1 MOL     -0.345082
     20 C7          5.3110   -2.9980    2.6320 c3        1 MOL      0.046345
     21 C8          5.8300   -3.7910    1.4690 c         1 MOL      0.523288
     22 O5          6.8620   -4.4750    1.5910 o         1 MOL     -0.514710
     23 C9          6.1550   -3.1550    3.8920 c3        1 MOL     -0.262458
     24 C10         7.4550   -2.2730    3.8360 c3        1 MOL      0.228419
     25 C11         8.2870   -2.1600    5.0830 c3        1 MOL     -0.247254
     26 C12         8.8780   -0.7580    5.0180 c3        1 MOL      0.299211
     27 N3          9.5220   -0.4620    6.3640 n4        1 MOL     -0.523257
     28 H8          3.8660   -1.5260    2.9280 hn        1 MOL      0.278688
     29 H9          4.4770   -3.6790    2.7600 h1        1 MOL      0.057972
     30 H10         6.5250   -4.1720    3.9660 hc        1 MOL      0.084387
     31 H11         5.5080   -3.0560    4.7660 hc        1 MOL      0.084387
     32 H12         7.1140   -1.2780    3.5610 hc        1 MOL      0.000492
     33 H13         8.0450   -2.6810    3.0190 hc        1 MOL      0.000492
     34 H14         9.0220   -2.9610    5.1760 hc        1 MOL      0.062498
     35 H15         7.5730   -2.0960    5.9000 hc        1 MOL      0.062498
     36 H16         8.1220    0.0090    4.9120 hx        1 MOL      0.037638
     37 H17         9.6080   -0.6290    4.2170 hx        1 MOL      0.037638
     38 H18         9.9460    0.4590    6.3620 hn        1 MOL      0.354236
     39 H19         8.7870   -0.4470    7.0580 hn        1 MOL      0.354236
     40 H20        10.2190   -1.1390    6.6190 hn        1 MOL      0.354236
     41 N4          5.1430   -3.6950    0.2890 n         1 MOL     -0.368590
     42 C13         5.7690   -4.0160   -1.0290 c3        1 MOL     -0.105385
     43 C14         5.8300   -2.8520   -2.0730 c         1 MOL      0.509246
     44 O6          5.7930   -2.9920   -3.2810 o         1 MOL     -0.520547
     45 C15         4.9820   -5.2430   -1.5780 c3        1 MOL     -0.053412
     46 C16         3.4560   -5.0830   -1.4740 c         1 MOL      0.478185
     47 O7          2.7320   -6.0850   -1.5430 o         1 MOL     -0.631548
     48 O8          2.8940   -3.9250   -1.4690 o         1 MOL     -0.631548
     49 H21         4.3560   -3.0710    0.2960 hn        1 MOL      0.196769
     50 H22         6.8210   -4.2970   -0.9570 h1        1 MOL      0.147627
     51 H23         5.2280   -6.1020   -0.9600 hc        1 MOL      0.056299
     52 H24         5.2100   -5.6080   -2.5790 hc        1 MOL      0.056299
     53 N5          5.9840   -1.6170   -1.5840 n         1 MOL     -0.374156
     54 C17         5.9640   -0.2800   -2.2580 c3        1 MOL     -0.015722
     55 C18         7.2890    0.5880   -1.9950 c         1 MOL      0.493063
     56 O9          8.3900    0.0100   -1.8160 o         1 MOL     -0.533733
     57 H25         5.9600   -1.5030   -0.5800 hn        1 MOL      0.251199
     58 H26         5.1330    0.2070   -1.7590 h1        1 MOL      0.084189
     59 H27         5.7740   -0.4420   -3.3180 h1        1 MOL      0.084189
     60 N6          7.2390    1.8980   -1.8630 n         1 MOL     -0.432453
     61 C19         6.1700    2.8110   -2.2850 c3        1 MOL      0.241800
     62 C20         6.1040    3.9630   -1.2640 c         1 MOL      0.491028
     63 O10         7.2060    4.5500   -0.9220 o         1 MOL     -0.530572
     64 C21         6.2520    3.3060   -3.7410 c3        1 MOL     -0.430078
     65 C22         6.2900    2.2290   -4.7930 c         1 MOL      0.779141
     66 N7          7.4510    1.7790   -5.1700 n         1 MOL     -0.811175
     67 O11         5.2990    1.7140   -5.2080 o         1 MOL     -0.583559
     68 H28         8.1350    2.3400   -1.6800 hn        1 MOL      0.291388
     69 H29         5.2340    2.3210   -2.0310 h1        1 MOL     -0.021744
     70 H30         7.1360    3.9220   -3.9150 hc        1 MOL      0.119244
     71 H31         5.3190    3.8440   -3.8990 hc        1 MOL      0.119244
     72 H32         8.3320    1.9720   -4.7170 hn        1 MOL      0.367191
     73 H33         7.5860    1.1890   -5.9760 hn        1 MOL      0.367191
     74 N8          4.9190    4.5140   -0.7870 n         1 MOL     -0.491690
     75 C23         3.6110    4.0050   -1.2870 c3        1 MOL      0.107450
     76 C24         2.4030    4.7450   -0.9400 c         1 MOL      0.667473
     77 O12         2.4360    5.9380   -0.6370 o         1 MOL     -0.572980
     78 H34         4.9760    5.2630   -0.1130 hn        1 MOL      0.340261
     79 H35         3.4710    2.9940   -0.9210 h1        1 MOL      0.014758
     80 H36         3.6170    3.9390   -2.3700 h1        1 MOL      0.014758
     81 N9          1.1890    4.1300   -0.9440 n         1 MOL     -0.550944
     82 C25        -0.0300    4.8530   -0.5600 c3        1 MOL      0.180415
     83 C26        -1.1120    3.7670   -0.3420 c         1 MOL      0.535536
     84 O13        -0.8530    2.5320   -0.5280 o         1 MOL     -0.524737
     85 C27        -0.4350    5.8140   -1.7100 c3        1 MOL     -0.309783
     86 C28        -1.4650    6.7720   -1.1800 ca        1 MOL      0.167608
     87 C29        -2.8230    6.8170   -1.6850 ca        1 MOL     -0.202071
     88 C30        -1.1010    7.5900   -0.0740 ca        1 MOL     -0.202071
     89 C31        -3.6990    7.7270   -1.0060 ca        1 MOL     -0.268878
     90 C32        -1.9940    8.4930    0.4690 ca        1 MOL     -0.268878
     91 C33        -3.3130    8.5620    0.0890 ca        1 MOL      0.340707
     92 O14        -4.1050    9.4400    0.6730 oh        1 MOL     -0.459687
     93 H37         1.1040    3.1250   -1.0450 hn        1 MOL      0.242160
     94 H38         0.0910    5.3880    0.3800 h1        1 MOL      0.050488
     95 H39        -0.8000    5.1400   -2.4830 hc        1 MOL      0.112292
     96 H40         0.3970    6.4530   -1.9910 hc        1 MOL      0.112292
     97 H41        -3.1580    6.2530   -2.5370 ha        1 MOL      0.167051
     98 H42        -0.0690    7.5520    0.2400 ha        1 MOL      0.167051
     99 H43        -4.7400    7.6910   -1.2840 ha        1 MOL      0.136145
    100 H44        -1.7640    9.1270    1.3150 ha        1 MOL      0.136145
    101 H45        -3.4450    9.9480    1.1540 ho        1 MOL      0.350538
    102 N10        -2.2270    4.1390    0.1560 n         1 MOL     -0.306767
    103 C34        -3.4160    3.2660    0.3260 c3        1 MOL     -0.199065
    104 C35        -4.1450    3.0010   -1.0140 c         1 MOL      0.442542
    105 O15        -4.0480    3.7410   -2.0340 o         1 MOL     -0.469406
    106 C36        -4.4720    3.8590    1.3500 c3        1 MOL      0.344768
    107 C37        -5.3660    4.9590    0.8260 c3        1 MOL     -0.073076
    108 C38        -5.2830    2.6790    1.9590 c3        1 MOL     -0.475506
    109 C39        -6.0850    5.6870    1.9370 c3        1 MOL     -0.212085
    110 H46        -2.3480    5.0820    0.4840 hn        1 MOL      0.169011
    111 H47        -3.1340    2.3030    0.7500 h1        1 MOL      0.112069
    112 H48        -3.8650    4.2690    2.1630 hc        1 MOL      0.004554
    113 H49        -6.1100    4.5800    0.1320 hc        1 MOL      0.080457
    114 H50        -4.8780    5.7190    0.2080 hc        1 MOL      0.080457
    115 H51        -5.5890    2.9240    2.9740 hc        1 MOL      0.116590
    116 H52        -6.0800    2.3980    1.2690 hc        1 MOL      0.116590
    117 H53        -4.6870    1.8150    2.2490 hc        1 MOL      0.116590
    118 H54        -6.7330    6.4910    1.5830 hc        1 MOL      0.047555
    119 H55        -6.7130    5.0020    2.5090 hc        1 MOL      0.047555
    120 H56        -5.3560    6.0500    2.6600 hc        1 MOL      0.047555
    121 N11        -4.8920    1.8990   -1.0280 n         1 MOL     -0.214934
    122 C40        -5.5390    1.2640   -2.1880 c3        1 MOL     -0.105970
    123 C41        -5.9430   -0.1800   -1.8360 c         1 MOL      0.565562
    124 O16        -6.1670   -0.4610   -0.6760 o         1 MOL     -0.332635
    125 C42        -6.6090    2.1180   -2.7870 c3        1 MOL      0.108810
    126 O17        -7.2960    2.8310   -1.8570 oh        1 MOL     -0.556413
    127 H57        -5.0120    1.3510   -0.1940 hn        1 MOL      0.147299
    128 H58        -4.8040    1.1470   -2.9830 h1        1 MOL      0.074356
    129 H59        -7.2560    1.4600   -3.3850 h1        1 MOL      0.030247
    130 H60        -6.1200    2.8310   -3.4500 h1        1 MOL      0.030247
    131 H61        -8.1920    2.8610   -2.2010 ho        1 MOL      0.404574
    132 N12        -5.9320   -1.0480   -2.8840 n         1 MOL     -0.588945
    133 C43        -6.1310   -2.4940   -2.9140 c3        1 MOL      0.430675
    134 C44        -7.0990   -2.9850   -1.8180 c         1 MOL      0.382036
    135 O18        -6.7470   -3.9980   -1.1510 o         1 MOL     -0.463634
    136 C45        -4.7500   -3.1730   -3.0750 c3        1 MOL     -0.259112
    137 H62        -5.9240   -0.5840   -3.7770 hn        1 MOL      0.282916
    138 H63        -6.7370   -2.8350   -3.7600 h1        1 MOL     -0.003958
    139 H64        -4.8060   -4.2130   -3.4210 hc        1 MOL      0.046052
    140 H65        -4.2540   -2.7030   -3.9190 hc        1 MOL      0.046052
    141 H66        -4.0840   -3.2190   -2.2050 hc        1 MOL      0.046052
    142 N13        -8.3230   -2.3760   -1.7630 n         1 MOL     -0.498910
    143 C46        -9.3710   -2.7650   -0.8610 c3        1 MOL      0.323184
    144 C47        -8.8400   -2.8290    0.6560 c         1 MOL      0.251228
    145 O19        -9.5370   -3.3890    1.4930 o         1 MOL     -0.457948
    146 C48        -9.9820   -4.0650   -1.3370 c3        1 MOL     -0.424975
    147 H67        -8.4760   -1.5940   -2.3810 hn        1 MOL      0.262143
    148 H68       -10.1210   -1.9860   -0.9920 h1        1 MOL      0.028714
    149 H69       -10.8630   -4.1280   -0.7080 hc        1 MOL      0.124741
    150 H70       -10.2260   -4.1280   -2.3930 hc        1 MOL      0.124741
    151 H71        -9.3130   -4.9000   -1.1260 hc        1 MOL      0.124741
    152 N14        -7.7830   -2.0960    1.1520 n         1 MOL     -0.102663
    153 C49        -7.2550   -2.3100    2.5160 c3        1 MOL     -0.119349
    154 C50        -7.9890   -1.5950    3.6880 c         1 MOL      0.410813
    155 O20        -8.1260   -2.0530    4.8510 o         1 MOL     -0.476012
    156 C51        -5.7700   -1.8900    2.4140 c3        1 MOL      0.120193
    157 C52        -4.9870   -2.4640    3.5560 c3        1 MOL     -0.228409
    158 C53        -4.8400   -3.9520    3.6200 c         1 MOL      0.622998
    159 O21        -5.1760   -4.5830    4.6530 o         1 MOL     -0.671691
    160 O22        -4.3340   -4.5080    2.5640 o         1 MOL     -0.671691
    161 H72        -7.3410   -1.4440    0.5230 hn        1 MOL      0.033232
    162 H73        -7.2370   -3.3610    2.7960 h1        1 MOL      0.214974
    163 H74        -5.5800   -0.8200    2.5880 hc        1 MOL     -0.025189
    164 H75        -5.2750   -2.1300    1.4770 hc        1 MOL     -0.025189
    165 H76        -5.4780   -2.1330    4.4700 hc        1 MOL      0.039891
    166 H77        -4.0090   -1.9890    3.5690 hc        1 MOL      0.039891
    167 N15        -8.6760   -0.5050    3.2880 n         1 MOL     -0.238789
    168 C54        -9.7130    0.2210    4.1280 c3        1 MOL     -0.196286
    169 H78       -10.2290   -0.4960    4.7680 h1        1 MOL      0.097873
    170 H79        -9.2200    0.9700    4.7480 h1        1 MOL      0.097873
    171 H80       -10.4350    0.7080    3.4730 h1        1 MOL      0.097873
    172 H81        -8.4610   -0.1950    2.3530 hn        1 MOL      0.198166
    173 Ca1         0.5320   -4.7380   -1.9450 Ca        1 MOL      1.662119
    174 O23         0.1490   -7.3400   -3.3750 oh        1 MOL     -0.779378
    175 H82         1.0220   -7.5120   -3.7270 ho        1 MOL      0.391820
    176 H83        -0.4130   -7.2490   -4.1500 ho        1 MOL      0.391820
    177 O24        -1.3890   -4.7400   -3.9750 oh        1 MOL     -0.779378
    178 H84        -2.2070   -4.2310   -3.9550 ho        1 MOL      0.391820
    179 H85        -1.5920   -5.4990   -4.5260 ho        1 MOL      0.391820
    180 O25        -1.8590   -3.9170   -1.0930 oh        1 MOL     -0.779378
    181 H86        -2.0200   -3.5340   -0.2330 ho        1 MOL      0.391820
    182 H87        -2.7060   -4.2820   -1.3650 ho        1 MOL      0.391820
    183 O26         0.7560   -4.1440    0.5910 oh        1 MOL     -0.779378
    184 H88         0.9100   -5.0120    0.9650 ho        1 MOL      0.391820
    185 H89         1.0610   -3.5390    1.2700 ho        1 MOL      0.391820
    186 O27         1.7700   -4.8440   -4.2730 oh        1 MOL     -0.779378
    187 H90         2.5050   -4.3190   -4.5990 ho        1 MOL      0.391820
    188 H91         1.3610   -5.1780   -5.0780 ho        1 MOL      0.391820
    189 O28         0.6640   -1.9700   -2.1160 oh        1 MOL     -0.779378
    190 H92         0.2900   -1.2280   -1.6280 ho        1 MOL      0.391820
    191 H93         1.5310   -1.6620   -2.3730 ho        1 MOL      0.391820
    192 O29        -0.6760   -6.6150   -0.4510 oh        1 MOL     -0.779378
    193 H94        -0.5420   -7.5610   -0.3550 ho        1 MOL      0.391820
    194 H95        -1.2460   -6.3850    0.2790 ho        1 MOL      0.391820
@<TRIPOS>BOND
     1    1    2 1   
     2    1    4 1   
     3    1    5 1   
     4    1    6 1   
     5    2    3 2   
     6    2    7 1   
     7    7    8 1   
     8    7   15 1   
     9    8    9 1   
    10    8   11 1   
    11    8   16 1   
    12    9   10 2   
    13    9   19 1   
    14   11   12 1   
    15   11   17 1   
    16   11   18 1   
    17   12   13 1   
    18   12   14 1   
    19   19   20 1   
    20   19   28 1   
    21   20   21 1   
    22   20   23 1   
    23   20   29 1   
    24   21   22 2   
    25   21   41 1   
    26   23   24 1   
    27   23   30 1   
    28   23   31 1   
    29   24   25 1   
    30   24   32 1   
    31   24   33 1   
    32   25   26 1   
    33   25   34 1   
    34   25   35 1   
    35   26   27 1   
    36   26   36 1   
    37   26   37 1   
    38   27   38 1   
    39   27   39 1   
    40   27   40 1   
    41   41   42 1   
    42   41   49 1   
    43   42   43 1   
    44   42   45 1   
    45   42   50 1   
    46   43   44 2   
    47   43   53 1   
    48   45   46 1   
    49   45   51 1   
    50   45   52 1   
    51   46   47 1   
    52   46   48 1   
    53   53   54 1   
    54   53   57 1   
    55   54   55 1   
    56   54   58 1   
    57   54   59 1   
    58   55   56 2   
    59   55   60 1   
    60   60   61 1   
    61   60   68 1   
    62   61   62 1   
    63   61   64 1   
    64   61   69 1   
    65   62   63 2   
    66   62   74 1   
    67   64   65 1   
    68   64   70 1   
    69   64   71 1   
    70   65   66 1   
    71   65   67 2   
    72   66   72 1   
    73   66   73 1   
    74   74   75 1   
    75   74   78 1   
    76   75   76 1   
    77   75   79 1   
    78   75   80 1   
    79   76   77 2   
    80   76   81 1   
    81   81   82 1   
    82   81   93 1   
    83   82   83 1   
    84   82   85 1   
    85   82   94 1   
    86   83   84 2   
    87   83  102 1   
    88   85   86 1   
    89   85   95 1   
    90   85   96 1   
    91   86   87 ar  
    92   86   88 ar  
    93   87   89 ar  
    94   87   97 1   
    95   88   90 ar  
    96   88   98 1   
    97   89   91 ar  
    98   89   99 1   
    99   90   91 ar  
   100   90  100 1   
   101   91   92 1   
   102   92  101 1   
   103  102  103 1   
   104  102  110 1   
   105  103  104 1   
   106  103  106 1   
   107  103  111 1   
   108  104  105 2   
   109  104  121 1   
   110  106  107 1   
   111  106  108 1   
   112  106  112 1   
   113  107  109 1   
   114  107  113 1   
   115  107  114 1   
   116  108  115 1   
   117  108  116 1   
   118  108  117 1   
   119  109  118 1   
   120  109  119 1   
   121  109  120 1   
   122  121  122 1   
   123  121  127 1   
   124  122  123 1   
   125  122  125 1   
   126  122  128 1   
   127  123  124 2   
   128  123  132 1   
   129  125  126 1   
   130  125  129 1   
   131  125  130 1   
   132  126  131 1   
   133  132  133 1   
   134  132  137 1   
   135  133  134 1   
   136  133  136 1   
   137  133  138 1   
   138  134  135 2   
   139  134  142 1   
   140  136  139 1   
   141  136  140 1   
   142  136  141 1   
   143  142  143 1   
   144  142  147 1   
   145  143  144 1   
   146  143  146 1   
   147  143  148 1   
   148  144  145 2   
   149  144  152 1   
   150  146  149 1   
   151  146  150 1   
   152  146  151 1   
   153  152  153 1   
   154  152  161 1   
   155  153  154 1   
   156  153  156 1   
   157  153  162 1   
   158  154  155 2   
   159  154  167 1   
   160  156  157 1   
   161  156  163 1   
   162  156  164 1   
   163  157  158 1   
   164  157  165 1   
   165  157  166 1   
   166  158  159 1   
   167  158  160 1   
   168  167  168 1   
   169  167  172 1   
   170  168  169 1   
   171  168  170 1   
   172  168  171 1   
   173  174  175 1   
   174  174  176 1   
   175  177  178 1   
   176  177  179 1   
   177  180  181 1   
   178  180  182 1   
   179  183  184 1   
   180  183  185 1   
   181  186  187 1   
   182  186  188 1   
   183  189  190 1   
   184  189  191 1   
   185  192  193 1   
   186  192  194 1   
@<TRIPOS>SUBSTRUCTURE
     1 MOL         1 TEMP              0 ****  ****    0 ROOT
