@<TRIPOS>MOLECULE
MOL
  181   177     1     0     0
SMALL
resp


@<TRIPOS>ATOM
      1 C1         10.0410   -4.1710    4.2210 c3        1 MOL     -0.316343
      2 C2          8.7580   -3.7380    3.5510 c         1 MOL      0.636828
      3 O1          7.7310   -3.5020    4.1780 o         1 MOL     -0.561783
      4 H1         10.8470   -4.1840    3.4870 hc        1 MOL      0.064635
      5 H2         10.2880   -3.4720    5.0190 hc        1 MOL      0.064635
      6 H3          9.9140   -5.1700    4.6380 hc        1 MOL      0.064635
      7 N1          8.7990   -3.5570    2.2360 n         1 MOL     -0.302894
      8 C3          9.8410   -3.5830    1.1650 c3        1 MOL      0.032106
      9 C4          9.0870   -3.9430   -0.1810 c         1 MOL      0.432361
     10 O2          8.0500   -4.6490   -0.0880 o         1 MOL     -0.446637
     11 C5         10.4980   -2.1170    1.1410 c3        1 MOL     -0.296197
     12 C6          9.5750   -0.9290    0.7400 c         1 MOL      0.632251
     13 O3          9.3690   -0.6670   -0.4590 o         1 MOL     -0.694946
     14 O4          9.0710   -0.1650    1.5910 o         1 MOL     -0.694946
     15 H4          7.8650   -3.3220    1.9210 hn        1 MOL      0.226274
     16 H5         10.6450   -4.2870    1.3430 h1        1 MOL      0.079135
     17 H6         11.1990   -2.1460    0.3130 hc        1 MOL      0.071230
     18 H7         10.8850   -1.9200    2.1440 hc        1 MOL      0.071230
     19 N2          9.6610   -3.6220   -1.3920 n         1 MOL     -0.451654
     20 C7          9.0690   -3.7470   -2.6770 c3        1 MOL      0.277053
     21 C8          7.7670   -3.1030   -2.9560 c         1 MOL      0.393484
     22 O5          7.3630   -3.0700   -4.1440 o         1 MOL     -0.578579
     23 C9          9.0650   -5.2900   -3.0120 c3        1 MOL     -0.477650
     24 H8         10.5870   -3.2350   -1.5270 hn        1 MOL      0.298375
     25 H9          9.7200   -3.3050   -3.4310 h1        1 MOL      0.014210
     26 H10         8.8610   -5.3460   -4.0800 hc        1 MOL      0.127978
     27 H11        10.0260   -5.7370   -2.7540 hc        1 MOL      0.127978
     28 H12         8.2230   -5.7560   -2.5050 hc        1 MOL      0.127978
     29 N3          7.1510   -2.5590   -1.9370 n         1 MOL      0.030356
     30 C10         5.7360   -2.0940   -2.0930 c3        1 MOL      0.026135
     31 C11         5.7640   -0.6450   -2.5140 c         1 MOL      0.492971
     32 O6          6.8010   -0.0220   -2.4940 o         1 MOL     -0.549832
     33 C12         5.0470   -2.1990   -0.7280 c3        1 MOL     -0.183566
     34 C13         5.9750   -1.9840    0.5260 c         1 MOL      0.678112
     35 O7          6.3990   -0.8380    0.7140 o         1 MOL     -0.604794
     36 O8          6.0450   -2.8730    1.4340 o         1 MOL     -0.604794
     37 H13         7.6620   -2.4000   -1.0900 hn        1 MOL     -0.141823
     38 H14         5.2050   -2.5360   -2.9380 h1        1 MOL      0.067361
     39 H15         4.6200   -3.2050   -0.7110 hc        1 MOL      0.067602
     40 H16         4.1830   -1.5460   -0.6290 hc        1 MOL      0.067602
     41 N4          4.6090   -0.0820   -2.9080 n         1 MOL     -0.461779
     42 C14         4.4370    1.3880   -3.1060 c3        1 MOL      0.026617
     43 C15         4.6140    2.1830   -1.8190 c         1 MOL      0.614232
     44 O9          5.0870    1.6390   -0.7960 o         1 MOL     -0.560520
     45 H17         3.7170   -0.5600   -2.9750 hn        1 MOL      0.327276
     46 H18         3.4710    1.5920   -3.5950 h1        1 MOL      0.066184
     47 H19         5.1790    1.7470   -3.8140 h1        1 MOL      0.066184
     48 N5          4.3300    3.4630   -1.9570 n         1 MOL     -0.608642
     49 C16         4.1510    4.4580   -0.9430 c3        1 MOL      0.081849
     50 C17         2.9540    4.0690   -0.0400 c         1 MOL      0.681279
     51 O10         2.0220    3.4150   -0.5070 o         1 MOL     -0.467084
     52 C18         3.8640    5.7970   -1.7140 c3        1 MOL     -0.264120
     53 C19         5.0060    6.1190   -2.5540 c         1 MOL      0.651362
     54 N6          6.1140    6.3750   -1.8960 n         1 MOL     -0.672475
     55 O11         4.9240    6.4120   -3.7410 o         1 MOL     -0.551876
     56 H20         4.1570    3.7600   -2.9110 hn        1 MOL      0.305245
     57 H21         5.0180    4.5100   -0.2900 h1        1 MOL     -0.004807
     58 H22         3.7310    6.5480   -0.9320 hc        1 MOL      0.127344
     59 H23         2.9510    5.7070   -2.2920 hc        1 MOL      0.127344
     60 H24         6.2020    6.4360   -0.8890 hn        1 MOL      0.303729
     61 H25         6.7580    6.7610   -2.5790 hn        1 MOL      0.303729
     62 N7          2.8740    4.4380    1.2840 n         1 MOL     -0.615867
     63 C20         1.5440    4.4350    1.9970 c3        1 MOL     -0.006969
     64 C21         0.4520    5.2330    1.3030 c         1 MOL      0.557326
     65 O12         0.8440    6.1730    0.5280 o         1 MOL     -0.584512
     66 H26         3.6240    4.9250    1.7510 hn        1 MOL      0.301471
     67 H27         1.5790    4.9470    2.9520 h1        1 MOL      0.112773
     68 H28         1.3380    3.3750    2.1640 h1        1 MOL      0.112773
     69 N8         -0.8680    4.9650    1.4690 n         1 MOL     -0.444522
     70 C22        -1.5770    3.8990    2.2010 c3        1 MOL     -0.130840
     71 C23        -2.9320    3.7160    1.5720 c         1 MOL      0.561063
     72 O13        -3.3910    4.6990    0.9280 o         1 MOL     -0.516378
     73 C24        -1.7760    4.3050    3.6960 c3        1 MOL      0.475050
     74 C25        -2.2660    3.2590    4.6850 c3        1 MOL     -0.398979
     75 O14        -0.5420    4.6490    4.1090 oh        1 MOL     -0.700181
     76 H29        -1.5300    5.5390    0.9720 hn        1 MOL      0.299051
     77 H30        -1.0700    2.9400    2.1550 h1        1 MOL      0.122686
     78 H31        -2.4600    5.1430    3.7970 h1        1 MOL     -0.023291
     79 H32        -0.6740    5.2020    4.8880 ho        1 MOL      0.410347
     80 H33        -1.6200    2.3890    4.5680 hc        1 MOL      0.094798
     81 H34        -2.1170    3.7790    5.6320 hc        1 MOL      0.094798
     82 H35        -3.3070    3.1120    4.4320 hc        1 MOL      0.094798
     83 N9         -3.5710    2.5600    1.6600 n         1 MOL     -0.343853
     84 C26        -4.9070    2.2540    1.0540 c3        1 MOL      0.158327
     85 C27        -6.0810    2.6500    2.0280 c         1 MOL      0.392528
     86 O15        -5.8370    2.9580    3.1460 o         1 MOL     -0.541198
     87 C28        -4.9360    0.7650    0.6870 c3        1 MOL      0.026028
     88 C29        -4.4280   -0.3150    1.7270 c3        1 MOL      0.027997
     89 C30        -3.9910    0.6970   -0.5280 c3        1 MOL     -0.192458
     90 C31        -5.5240   -0.5670    2.7770 c3        1 MOL     -0.176100
     91 H36        -3.2160    1.8360    2.2820 hn        1 MOL      0.211670
     92 H37        -5.0200    2.9110    0.1930 h1        1 MOL      0.062318
     93 H38        -5.9220    0.3990    0.4120 hc        1 MOL     -0.052329
     94 H39        -3.4810   -0.0490    2.1810 hc        1 MOL      0.023213
     95 H40        -4.2170   -1.2120    1.1350 hc        1 MOL      0.023213
     96 H41        -4.2470    1.4570   -1.2660 hc        1 MOL      0.051045
     97 H42        -2.9580    0.8720   -0.2230 hc        1 MOL      0.051045
     98 H43        -4.1510   -0.2380   -1.0680 hc        1 MOL      0.051045
     99 H44        -5.1670   -1.3860    3.4090 hc        1 MOL      0.038461
    100 H45        -5.7040    0.3860    3.2700 hc        1 MOL      0.038461
    101 H46        -6.4700   -0.9170    2.3420 hc        1 MOL      0.038461
    102 N10        -7.2810    2.8210    1.4850 n         1 MOL     -0.302403
    103 C32        -7.8630    2.4190    0.1790 c3        1 MOL      0.115267
    104 C33        -8.5190    1.0560    0.4840 c         1 MOL      0.416517
    105 O16        -9.1370    0.8520    1.5570 o         1 MOL     -0.549300
    106 C34        -8.9200    3.3930   -0.2240 c3        1 MOL     -0.586050
    107 C35        -8.3700    4.6250   -0.8860 c         1 MOL      0.826917
    108 O17        -9.1510    5.5130   -1.2220 o         1 MOL     -0.728311
    109 O18        -7.1530    4.7610   -1.1830 o         1 MOL     -0.728311
    110 H47        -7.9680    3.0760    2.1920 hn        1 MOL      0.273653
    111 H48        -7.0810    2.3020   -0.5670 h1        1 MOL      0.066704
    112 H49        -9.4620    3.6840    0.6750 hc        1 MOL      0.151912
    113 H50        -9.5660    2.8100   -0.8720 hc        1 MOL      0.151912
    114 N11        -8.4640    0.1260   -0.4980 n         1 MOL     -0.172851
    115 C36        -8.8340   -1.2370   -0.3710 c3        1 MOL      0.415038
    116 C37        -8.2950   -2.0980   -1.5120 c         1 MOL     -0.031508
    117 O19        -8.0880   -1.6080   -2.6460 o         1 MOL     -0.426925
    118 C38       -10.4040   -1.4260   -0.3860 c3        1 MOL     -0.239988
    119 C39       -11.0600   -0.6970   -1.5770 ca        1 MOL      0.204073
    120 C40       -11.5050    0.5790   -1.5830 ca        1 MOL     -0.251188
    121 C41       -11.3060   -1.4790   -2.7440 ca        1 MOL     -0.251188
    122 C42       -12.2010    1.1990   -2.6830 ca        1 MOL     -0.042244
    123 C43       -12.0610   -0.9280   -3.8110 ca        1 MOL     -0.042244
    124 C44       -12.4860    0.4400   -3.8290 ca        1 MOL     -0.202729
    125 H51        -8.1000    0.3750   -1.4070 hn        1 MOL      0.207024
    126 H52        -8.4500   -1.6690    0.5520 h1        1 MOL     -0.087271
    127 H53       -10.7420   -0.7720    0.4190 hc        1 MOL      0.064764
    128 H54       -10.6950   -2.4660   -0.3340 hc        1 MOL      0.064764
    129 H55       -11.1990    1.1950   -0.7530 ha        1 MOL      0.142772
    130 H56       -11.0610   -2.5240   -2.8650 ha        1 MOL      0.142772
    131 H57       -12.4030    2.2620   -2.6690 ha        1 MOL      0.081740
    132 H58       -12.5140   -1.5840   -4.5410 ha        1 MOL      0.081740
    133 H59       -12.9720    0.9480   -4.6440 ha        1 MOL      0.131195
    134 N12        -7.9670   -3.4100   -1.2550 n         1 MOL      0.153658
    135 C45        -8.1080   -3.9610    0.1200 c3        1 MOL     -0.146284
    136 C46        -6.7980   -3.9060    0.8500 c         1 MOL      0.840113
    137 O20        -6.8180   -3.6740    2.0510 o         1 MOL     -0.628832
    138 C47        -8.4890   -5.3830   -0.2230 c3        1 MOL     -0.101398
    139 C48        -7.8510   -5.6980   -1.5470 c3        1 MOL     -0.036382
    140 C49        -7.6380   -4.3910   -2.2850 c3        1 MOL     -0.007635
    141 H60        -8.9760   -3.5290    0.6250 h1        1 MOL      0.086612
    142 H61        -8.0590   -5.9680    0.5910 hc        1 MOL      0.048005
    143 H62        -9.5780   -5.4720   -0.3150 hc        1 MOL      0.048005
    144 H63        -6.8260   -6.0580   -1.4800 hc        1 MOL      0.016533
    145 H64        -8.5830   -6.3720   -1.9930 hc        1 MOL      0.016533
    146 H65        -6.6620   -4.2250   -2.7400 h1        1 MOL      0.037973
    147 H66        -8.4230   -4.2840   -3.0250 h1        1 MOL      0.037973
    148 N13        -5.6470   -4.1420    0.1950 n         1 MOL     -0.718648
    149 C50        -4.3190   -4.2270    0.8930 c3        1 MOL     -0.060760
    150 C51        -4.2380   -5.6280    1.4760 c         1 MOL      0.752048
    151 O21        -4.3380   -6.5830    0.7570 o         1 MOL     -0.625407
    152 C52        -3.2280   -3.8160   -0.2170 c3        1 MOL     -0.145853
    153 C53        -1.9820   -3.6550    0.5420 c3        1 MOL     -0.128856
    154 C54        -0.9430   -3.0470   -0.2960 c         1 MOL      0.787176
    155 O22        -0.2020   -3.7760   -0.9450 o         1 MOL     -0.739035
    156 O23        -0.8810   -1.8080   -0.3280 o         1 MOL     -0.739035
    157 H67        -5.7370   -4.4910   -0.7480 hn        1 MOL      0.389794
    158 H68        -4.3040   -3.6190    1.8000 h1        1 MOL      0.205940
    159 H69        -3.5390   -2.9400   -0.7970 hc        1 MOL      0.087292
    160 H70        -3.1500   -4.6400   -0.9290 hc        1 MOL      0.087292
    161 H71        -1.6150   -4.6330    0.8300 hc        1 MOL     -0.014517
    162 H72        -2.1970   -2.9500    1.3380 hc        1 MOL     -0.014517
    163 N14        -4.1670   -5.8780    2.7410 n         1 MOL     -0.545949
    164 C55        -4.6930   -5.2300    3.9200 c3        1 MOL      0.022960
    165 H73        -5.7580   -5.4480    4.0080 h1        1 MOL      0.042371
    166 H74        -4.1720   -5.6010    4.8020 h1        1 MOL      0.042371
    167 H75        -4.5490   -4.1530    3.8370 h1        1 MOL      0.042371
    168 H76        -4.0630   -6.8660    2.9430 hn        1 MOL      0.303118
    169 Ca1         7.7480    1.2040   -0.2260 Ca        1 MOL      1.736594
    170 O24         7.5420    4.0110   -0.3810 oh        1 MOL     -0.825846
    171 H77         7.6100    4.5630    0.3950 ho        1 MOL      0.401886
    172 H78         7.7610    4.5970   -1.1070 ho        1 MOL      0.401886
    173 O25         6.8420    2.2350    1.9980 oh        1 MOL     -0.825846
    174 H79         5.9250    2.0450    2.2030 ho        1 MOL      0.401886
    175 H80         7.0630    2.9870    2.5620 ho        1 MOL      0.401886
    176 O26         9.2020    2.1770   -2.2190 oh        1 MOL     -0.825846
    177 H81         9.4280    1.5360   -2.8900 ho        1 MOL      0.401886
    178 H82         9.5180    3.0200   -2.5690 ho        1 MOL      0.401886
    179 O27         9.9030    2.3750    0.9830 oh        1 MOL     -0.825846
    180 H83        10.2810    3.0870    1.5080 ho        1 MOL      0.401886
    181 H84        10.1800    1.5800    1.4350 ho        1 MOL      0.401886
@<TRIPOS>BOND
     1    1    2 1   
     2    1    4 1   
     3    1    5 1   
     4    1    6 1   
     5    2    3 2   
     6    2    7 1   
     7    7    8 1   
     8    7   15 1   
     9    8    9 1   
    10    8   11 1   
    11    8   16 1   
    12    9   10 2   
    13    9   19 1   
    14   11   12 1   
    15   11   17 1   
    16   11   18 1   
    17   12   13 1   
    18   12   14 1   
    19   19   20 1   
    20   19   24 1   
    21   20   21 1   
    22   20   23 1   
    23   20   25 1   
    24   21   22 2   
    25   21   29 1   
    26   23   26 1   
    27   23   27 1   
    28   23   28 1   
    29   29   30 1   
    30   29   37 1   
    31   30   31 1   
    32   30   33 1   
    33   30   38 1   
    34   31   32 2   
    35   31   41 1   
    36   33   34 1   
    37   33   39 1   
    38   33   40 1   
    39   34   35 1   
    40   34   36 1   
    41   41   42 1   
    42   41   45 1   
    43   42   43 1   
    44   42   46 1   
    45   42   47 1   
    46   43   44 2   
    47   43   48 1   
    48   48   49 1   
    49   48   56 1   
    50   49   50 1   
    51   49   52 1   
    52   49   57 1   
    53   50   51 2   
    54   50   62 1   
    55   52   53 1   
    56   52   58 1   
    57   52   59 1   
    58   53   54 1   
    59   53   55 2   
    60   54   60 1   
    61   54   61 1   
    62   62   63 1   
    63   62   66 1   
    64   63   64 1   
    65   63   67 1   
    66   63   68 1   
    67   64   65 2   
    68   64   69 1   
    69   69   70 1   
    70   69   76 1   
    71   70   71 1   
    72   70   73 1   
    73   70   77 1   
    74   71   72 2   
    75   71   83 1   
    76   73   74 1   
    77   73   75 1   
    78   73   78 1   
    79   74   80 1   
    80   74   81 1   
    81   74   82 1   
    82   75   79 1   
    83   83   84 1   
    84   83   91 1   
    85   84   85 1   
    86   84   87 1   
    87   84   92 1   
    88   85   86 2   
    89   85  102 1   
    90   87   88 1   
    91   87   89 1   
    92   87   93 1   
    93   88   90 1   
    94   88   94 1   
    95   88   95 1   
    96   89   96 1   
    97   89   97 1   
    98   89   98 1   
    99   90   99 1   
   100   90  100 1   
   101   90  101 1   
   102  102  103 1   
   103  102  110 1   
   104  103  104 1   
   105  103  106 1   
   106  103  111 1   
   107  104  105 2   
   108  104  114 1   
   109  106  107 1   
   110  106  112 1   
   111  106  113 1   
   112  107  108 1   
   113  107  109 1   
   114  114  115 1   
   115  114  125 1   
   116  115  116 1   
   117  115  118 1   
   118  115  126 1   
   119  116  117 2   
   120  116  134 1   
   121  118  119 1   
   122  118  127 1   
   123  118  128 1   
   124  119  120 ar  
   125  119  121 ar  
   126  120  122 ar  
   127  120  129 1   
   128  121  123 ar  
   129  121  130 1   
   130  122  124 ar  
   131  122  131 1   
   132  123  124 ar  
   133  123  132 1   
   134  124  133 1   
   135  134  135 1   
   136  134  140 1   
   137  135  136 1   
   138  135  138 1   
   139  135  141 1   
   140  136  137 2   
   141  136  148 1   
   142  138  139 1   
   143  138  142 1   
   144  138  143 1   
   145  139  140 1   
   146  139  144 1   
   147  139  145 1   
   148  140  146 1   
   149  140  147 1   
   150  148  149 1   
   151  148  157 1   
   152  149  150 1   
   153  149  152 1   
   154  149  158 1   
   155  150  151 2   
   156  150  163 1   
   157  152  153 1   
   158  152  159 1   
   159  152  160 1   
   160  153  154 1   
   161  153  161 1   
   162  153  162 1   
   163  154  155 1   
   164  154  156 1   
   165  163  164 1   
   166  163  168 1   
   167  164  165 1   
   168  164  166 1   
   169  164  167 1   
   170  170  171 1   
   171  170  172 1   
   172  173  174 1   
   173  173  175 1   
   174  176  177 1   
   175  176  178 1   
   176  179  180 1   
   177  179  181 1   
@<TRIPOS>SUBSTRUCTURE
     1 MOL         1 TEMP              0 ****  ****    0 ROOT
