@<TRIPOS>MOLECULE
MOL
  191   184     1     0     0
SMALL
resp


@<TRIPOS>ATOM
      1 C1         -1.5060   -0.4650   -3.8480 c3        1 MOL     -0.459730
      2 C2         -2.6160   -0.4960   -2.7670 c         1 MOL      0.633739
      3 O1         -2.7490    0.4010   -1.9970 o         1 MOL     -0.559455
      4 H1         -0.8700    0.4070   -3.6890 hc        1 MOL      0.116809
      5 H2         -0.9050   -1.3710   -3.7790 hc        1 MOL      0.116809
      6 H3         -1.9620   -0.4050   -4.8360 hc        1 MOL      0.116809
      7 N1         -3.4730   -1.4930   -2.8730 n         1 MOL     -0.276636
      8 C3         -4.5490   -1.8360   -1.9320 c3        1 MOL     -0.436822
      9 C4         -4.3550   -3.1040   -1.0770 c         1 MOL      0.673045
     10 O2         -5.3020   -3.7580   -0.7410 o         1 MOL     -0.438214
     11 C5         -5.9360   -1.6610   -2.5570 c3        1 MOL     -0.004031
     12 C6         -6.2280   -2.5970   -3.6920 c         1 MOL      0.627508
     13 O3         -5.4890   -3.5490   -4.0680 o         1 MOL     -0.682961
     14 O4         -7.3920   -2.4050   -4.1590 o         1 MOL     -0.682961
     15 H4         -3.3600   -2.1260   -3.6450 hn        1 MOL      0.195217
     16 H5         -4.5130   -0.9810   -1.2550 h1        1 MOL      0.155767
     17 H6         -5.9690   -0.6320   -2.9300 hc        1 MOL      0.056372
     18 H7         -6.6190   -1.8520   -1.7250 hc        1 MOL      0.056372
     19 N2         -3.1200   -3.4690   -0.8170 n         1 MOL     -0.366072
     20 C7         -2.6730   -4.5500    0.0440 c3        1 MOL      0.067412
     21 C8         -3.2830   -4.5400    1.4900 c         1 MOL      0.574029
     22 O5         -4.1640   -5.3490    1.7860 o         1 MOL     -0.513545
     23 C9         -2.9110   -5.9220   -0.7250 c3        1 MOL     -0.347274
     24 C10        -1.9530   -6.0830   -1.9430 c3        1 MOL      0.354793
     25 C11        -2.1900   -7.3770   -2.7190 c3        1 MOL     -0.046623
     26 C12        -1.6370   -7.5290   -4.1450 c3        1 MOL     -0.040006
     27 N3         -2.4290   -6.7000   -5.0820 n4        1 MOL     -0.316546
     28 H8         -2.3850   -2.7940   -0.9680 hn        1 MOL      0.202662
     29 H9         -1.6110   -4.4730    0.2840 h1        1 MOL      0.068326
     30 H10        -3.9340   -5.9840   -1.0880 hc        1 MOL      0.099262
     31 H11        -2.7500   -6.7410   -0.0250 hc        1 MOL      0.099262
     32 H12        -0.8890   -6.0520   -1.7290 hc        1 MOL     -0.088775
     33 H13        -2.1420   -5.2750   -2.6470 hc        1 MOL     -0.088775
     34 H14        -3.2730   -7.4810   -2.8320 hc        1 MOL      0.036368
     35 H15        -1.7630   -8.1480   -2.0850 hc        1 MOL      0.036368
     36 H16        -1.7650   -8.5610   -4.4740 hx        1 MOL      0.104559
     37 H17        -0.5980   -7.2120   -4.1140 hx        1 MOL      0.104559
     38 H18        -2.2350   -7.0160   -6.0240 hn        1 MOL      0.315632
     39 H19        -3.4130   -6.7470   -4.8990 hn        1 MOL      0.315632
     40 H20        -2.2200   -5.7110   -5.0680 hn        1 MOL      0.315632
     41 N4         -2.9900   -3.5030    2.2310 n         1 MOL     -0.528273
     42 C13        -3.7180   -2.9980    3.3720 c3        1 MOL      0.037940
     43 C14        -4.7940   -2.0180    2.7410 c         1 MOL      0.521296
     44 O6         -4.5110   -1.3250    1.7140 o         1 MOL     -0.418502
     45 C15        -2.8390   -2.3710    4.3740 c3        1 MOL     -0.180824
     46 C16        -2.0560   -1.2210    3.8330 c         1 MOL      0.630556
     47 O7         -0.8280   -1.4110    3.5310 o         1 MOL     -0.748151
     48 O8         -2.4240   -0.0480    3.7630 o         1 MOL     -0.748151
     49 H21        -2.2540   -2.9190    1.8600 hn        1 MOL      0.286933
     50 H22        -4.2310   -3.8410    3.8450 h1        1 MOL      0.095059
     51 H23        -2.2430   -3.0780    4.9490 hc        1 MOL      0.084875
     52 H24        -3.5180   -2.0340    5.1660 hc        1 MOL      0.084875
     53 N5         -6.0300   -1.9230    3.3320 n         1 MOL     -0.426237
     54 C17        -7.0650   -0.9920    2.9620 c3        1 MOL      0.084783
     55 C18        -7.6030   -1.3300    1.5650 c         1 MOL      0.463806
     56 O9         -7.9780   -2.5100    1.3380 o         1 MOL     -0.495533
     57 H25        -6.1280   -2.5160    4.1380 hn        1 MOL      0.296351
     58 H26        -6.6640    0.0170    2.9380 h1        1 MOL      0.011678
     59 H27        -7.8950   -1.0480    3.6740 h1        1 MOL      0.011678
     60 N6         -7.7130   -0.4210    0.5500 n         1 MOL     -0.426864
     61 C19        -7.2400    1.0180    0.5380 c3        1 MOL      0.125834
     62 C20        -6.8850    1.4380   -0.8870 c         1 MOL      0.277999
     63 O10        -7.6730    1.1650   -1.8240 o         1 MOL     -0.470191
     64 C21        -8.3590    1.8600    1.1000 c3        1 MOL     -0.467933
     65 C22        -7.7620    3.1960    1.2510 c         1 MOL      0.751621
     66 N7         -7.3290    3.5460    2.3870 n         1 MOL     -0.782325
     67 O11        -7.8070    4.0360    0.3920 o         1 MOL     -0.562210
     68 H28        -8.0550   -0.8180   -0.3080 hn        1 MOL      0.323398
     69 H29        -6.3140    1.0320    1.1030 h1        1 MOL      0.063769
     70 H30        -8.7700    1.4900    2.0350 hc        1 MOL      0.178587
     71 H31        -9.1000    1.9470    0.3150 hc        1 MOL      0.178587
     72 H32        -7.2500    2.8420    3.1100 hn        1 MOL      0.351029
     73 H33        -6.7670    4.3790    2.4360 hn        1 MOL      0.351029
     74 N8         -5.7600    2.0560   -1.1930 n         1 MOL     -0.200017
     75 C23        -4.7620    2.5750   -0.2510 c3        1 MOL      0.071892
     76 C24        -3.6670    3.3250   -0.9980 c         1 MOL      0.596008
     77 O12        -4.0060    3.9130   -2.0260 o         1 MOL     -0.522902
     78 H34        -5.6380    2.3710   -2.1410 hn        1 MOL      0.283840
     79 H35        -4.2930    1.7710    0.3170 h1        1 MOL     -0.049190
     80 H36        -5.1710    3.3640    0.3790 h1        1 MOL     -0.049190
     81 N9         -2.4080    3.2960   -0.4360 n         1 MOL     -0.576649
     82 C25        -1.2130    3.9330   -1.0160 c3        1 MOL      0.170785
     83 C26        -0.0090    3.0250   -0.7900 c         1 MOL      0.395552
     84 O13        -0.0560    2.2160    0.1660 o         1 MOL     -0.513919
     85 C27        -1.1110    5.3030   -0.3310 c3        1 MOL     -0.093378
     86 C28        -0.2530    6.2650   -1.1380 ca        1 MOL     -0.041080
     87 C29         1.1310    6.4670   -0.7880 ca        1 MOL     -0.104337
     88 C30        -0.7110    6.8120   -2.3340 ca        1 MOL     -0.104337
     89 C31         1.8860    7.3770   -1.5090 ca        1 MOL     -0.322021
     90 C32         0.1600    7.6270   -3.1150 ca        1 MOL     -0.322021
     91 C33         1.4540    7.9000   -2.6910 ca        1 MOL      0.436992
     92 O14         2.2290    8.7120   -3.4130 oh        1 MOL     -0.515762
     93 H37        -2.3580    2.8520    0.4600 hn        1 MOL      0.382360
     94 H38        -1.3590    4.0500   -2.0880 h1        1 MOL      0.063377
     95 H39        -0.5950    5.1830    0.6240 hc        1 MOL      0.070138
     96 H40        -2.0730    5.7470   -0.1200 hc        1 MOL      0.070138
     97 H41         1.5550    6.0600    0.1210 ha        1 MOL      0.132980
     98 H42        -1.6930    6.5450   -2.7110 ha        1 MOL      0.132980
     99 H43         2.8030    7.7510   -1.0810 ha        1 MOL      0.151637
    100 H44        -0.2010    8.1240   -4.0120 ha        1 MOL      0.151637
    101 H45         1.6620    9.1940   -4.0250 ho        1 MOL      0.382796
    102 N10         1.0030    3.1200   -1.6470 n         1 MOL     -0.318035
    103 C34         2.3080    2.4150   -1.5530 c3        1 MOL     -0.127536
    104 C35         2.9490    2.5090   -0.1400 c         1 MOL      0.275377
    105 O15         2.6220    3.4000    0.6670 o         1 MOL     -0.514131
    106 C36         3.2390    2.9150   -2.6210 c3        1 MOL      0.244195
    107 C37         3.5110    4.4140   -2.6320 c3        1 MOL      0.030937
    108 C38         4.5600    2.1080   -2.7890 c3        1 MOL     -0.242358
    109 C39         4.2900    4.9360   -3.8510 c3        1 MOL     -0.193449
    110 H46         0.9150    3.8670   -2.3150 hn        1 MOL      0.253574
    111 H47         2.1250    1.3710   -1.8100 h1        1 MOL      0.142590
    112 H48         2.6550    2.7170   -3.5210 hc        1 MOL     -0.022644
    113 H49         4.1480    4.6260   -1.7810 hc        1 MOL      0.015681
    114 H50         2.5890    4.9890   -2.5350 hc        1 MOL      0.015681
    115 H51         5.0680    2.4070   -3.7070 hc        1 MOL      0.050730
    116 H52         5.2040    2.1370   -1.9120 hc        1 MOL      0.050730
    117 H53         4.3190    1.0550   -2.9130 hc        1 MOL      0.050730
    118 H54         5.3520    4.7400   -3.7500 hc        1 MOL      0.055789
    119 H55         3.9060    4.5770   -4.8000 hc        1 MOL      0.055789
    120 H56         4.2220    6.0250   -3.8330 hc        1 MOL      0.055789
    121 N11         3.7350    1.4860    0.2250 n         1 MOL      0.025260
    122 C40         4.2710    1.3740    1.6550 c3        1 MOL      0.186359
    123 C41         4.5330   -0.0430    2.1690 c         1 MOL      0.302657
    124 O16         4.5540   -1.0020    1.3740 o         1 MOL     -0.376681
    125 C42         5.6290    2.0690    1.6080 c3        1 MOL     -0.241273
    126 O17         6.4720    1.4830    0.5930 oh        1 MOL     -0.456002
    127 H57         3.8640    0.6740   -0.3600 hn        1 MOL      0.135687
    128 H58         3.5160    1.8440    2.2960 h1        1 MOL     -0.051564
    129 H59         6.2130    2.1390    2.5250 h1        1 MOL      0.119235
    130 H60         5.3770    3.0260    1.1470 h1        1 MOL      0.119235
    131 H61         7.3460    1.8840    0.6590 ho        1 MOL      0.394056
    132 N12         4.7590   -0.0750    3.4950 n         1 MOL     -0.195408
    133 C43         5.3780   -1.2220    4.1460 c3        1 MOL      0.085183
    134 C44         6.7010   -1.7670    3.5570 c         1 MOL      0.463024
    135 O18         6.8840   -2.9960    3.5140 o         1 MOL     -0.447783
    136 C45         4.3300   -2.2790    4.2910 c3        1 MOL     -0.394263
    137 H62         4.6870    0.7570    4.0650 hn        1 MOL      0.172246
    138 H63         5.6820   -0.8900    5.1380 h1        1 MOL      0.043127
    139 H64         3.3610   -1.8190    4.4790 hc        1 MOL      0.129253
    140 H65         4.3050   -2.7260    3.2980 hc        1 MOL      0.129253
    141 H66         4.5120   -2.9950    5.0850 hc        1 MOL      0.129253
    142 N13         7.4950   -0.8880    2.9770 n         1 MOL     -0.465198
    143 C46         8.7420   -1.2350    2.1860 c3        1 MOL      0.342967
    144 C47         8.5380   -2.0160    0.8540 c         1 MOL      0.317897
    145 O19         9.4270   -2.8310    0.4860 o         1 MOL     -0.488773
    146 C48         9.8680   -1.7720    2.9950 c3        1 MOL     -0.302713
    147 H67         7.2770    0.0730    3.1870 hn        1 MOL      0.222232
    148 H68         9.1270   -0.2760    1.8370 h1        1 MOL     -0.014931
    149 H69        10.7920   -1.6160    2.4290 hc        1 MOL      0.084771
    150 H70         9.9050   -1.2900    3.9720 hc        1 MOL      0.084771
    151 H71         9.7730   -2.8320    3.2260 hc        1 MOL      0.084771
    152 N14         7.5610   -1.6880    0.0140 n         1 MOL     -0.054699
    153 C49         7.3180   -2.3150   -1.3180 c3        1 MOL     -0.249565
    154 C50         8.2180   -1.8000   -2.5010 c         1 MOL      0.396615
    155 O20         8.6270   -2.6250   -3.3740 o         1 MOL     -0.453386
    156 C51         5.8200   -2.2760   -1.5930 c3        1 MOL      0.191434
    157 C52         5.4360   -3.2280   -2.7040 c3        1 MOL     -0.299123
    158 C53         5.3590   -4.6800   -2.3090 c         1 MOL      0.727546
    159 O21         5.9820   -5.5260   -2.9850 o         1 MOL     -0.665742
    160 O22         4.6260   -5.0290   -1.3260 o         1 MOL     -0.665742
    161 H72         6.9020   -0.9820    0.3140 hn        1 MOL      0.027272
    162 H73         7.4390   -3.3920   -1.1550 h1        1 MOL      0.226633
    163 H74         5.4870   -1.2470   -1.6980 hc        1 MOL     -0.034588
    164 H75         5.2510   -2.6140   -0.7360 hc        1 MOL     -0.034588
    165 H76         6.0920   -3.1300   -3.5580 hc        1 MOL      0.042097
    166 H77         4.4170   -2.9120   -2.9540 hc        1 MOL      0.042097
    167 N15         8.6180   -0.5210   -2.4560 n         1 MOL     -0.149622
    168 C54         9.6460    0.0480   -3.3360 c3        1 MOL     -0.246743
    169 H78         9.9320    1.0350   -2.9690 h1        1 MOL      0.107263
    170 H79        10.5200   -0.6030   -3.3440 h1        1 MOL      0.107263
    171 H80         9.2500    0.1390   -4.3480 h1        1 MOL      0.107263
    172 H81         8.2630    0.0480   -1.7010 hn        1 MOL      0.152127
    173 Ca1        -0.4420    1.2100    2.7740 Ca        1 MOL      1.795576
    174 O23         0.7370    3.6610    2.8120 oh        1 MOL     -0.816949
    175 O24        -2.3460    0.1030    0.7770 oh        1 MOL     -0.816949
    176 H82         1.0130    3.9910    3.6670 ho        1 MOL      0.390575
    177 H83        -2.4160    0.4360   -0.1180 ho        1 MOL      0.390575
    178 H84         1.3480    4.0390    2.1840 ho        1 MOL      0.390575
    179 H85        -3.1830   -0.3480    0.9270 ho        1 MOL      0.390575
    180 O25        -0.5010    2.2830    5.1910 oh        1 MOL     -0.816949
    181 H86        -1.1490    2.9110    5.4900 ho        1 MOL      0.390575
    182 H87         0.0830    2.1640    5.9480 ho        1 MOL      0.390575
    183 O26         1.2240   -0.3060    1.3990 oh        1 MOL     -0.816949
    184 H88         1.1280   -0.9180    0.6670 ho        1 MOL      0.390575
    185 H89         2.0800   -0.5060    1.7570 ho        1 MOL      0.390575
    186 O27        -2.6420    3.0450    2.5490 oh        1 MOL     -0.816949
    187 H90        -2.8590    3.9520    2.7830 ho        1 MOL      0.390575
    188 H91        -3.3530    2.5300    2.9240 ho        1 MOL      0.390575
    189 O28         1.9570    1.2210    4.3140 oh        1 MOL     -0.816949
    190 H92         2.0880    0.7640    5.1520 ho        1 MOL      0.390575
    191 H93         2.4430    2.0350    4.4020 ho        1 MOL      0.390575
@<TRIPOS>BOND
     1    1    2 1   
     2    1    4 1   
     3    1    5 1   
     4    1    6 1   
     5    2    3 2   
     6    2    7 1   
     7    7    8 1   
     8    7   15 1   
     9    8    9 1   
    10    8   11 1   
    11    8   16 1   
    12    9   10 2   
    13    9   19 1   
    14   11   12 1   
    15   11   17 1   
    16   11   18 1   
    17   12   13 1   
    18   12   14 1   
    19   19   20 1   
    20   19   28 1   
    21   20   21 1   
    22   20   23 1   
    23   20   29 1   
    24   21   22 2   
    25   21   41 1   
    26   23   24 1   
    27   23   30 1   
    28   23   31 1   
    29   24   25 1   
    30   24   32 1   
    31   24   33 1   
    32   25   26 1   
    33   25   34 1   
    34   25   35 1   
    35   26   27 1   
    36   26   36 1   
    37   26   37 1   
    38   27   38 1   
    39   27   39 1   
    40   27   40 1   
    41   41   42 1   
    42   41   49 1   
    43   42   43 1   
    44   42   45 1   
    45   42   50 1   
    46   43   44 2   
    47   43   53 1   
    48   45   46 1   
    49   45   51 1   
    50   45   52 1   
    51   46   47 1   
    52   46   48 1   
    53   53   54 1   
    54   53   57 1   
    55   54   55 1   
    56   54   58 1   
    57   54   59 1   
    58   55   56 2   
    59   55   60 1   
    60   60   61 1   
    61   60   68 1   
    62   61   62 1   
    63   61   64 1   
    64   61   69 1   
    65   62   63 2   
    66   62   74 1   
    67   64   65 1   
    68   64   70 1   
    69   64   71 1   
    70   65   66 1   
    71   65   67 2   
    72   66   72 1   
    73   66   73 1   
    74   74   75 1   
    75   74   78 1   
    76   75   76 1   
    77   75   79 1   
    78   75   80 1   
    79   76   77 2   
    80   76   81 1   
    81   81   82 1   
    82   81   93 1   
    83   82   83 1   
    84   82   85 1   
    85   82   94 1   
    86   83   84 2   
    87   83  102 1   
    88   85   86 1   
    89   85   95 1   
    90   85   96 1   
    91   86   87 ar  
    92   86   88 ar  
    93   87   89 ar  
    94   87   97 1   
    95   88   90 ar  
    96   88   98 1   
    97   89   91 ar  
    98   89   99 1   
    99   90   91 ar  
   100   90  100 1   
   101   91   92 1   
   102   92  101 1   
   103  102  103 1   
   104  102  110 1   
   105  103  104 1   
   106  103  106 1   
   107  103  111 1   
   108  104  105 2   
   109  104  121 1   
   110  106  107 1   
   111  106  108 1   
   112  106  112 1   
   113  107  109 1   
   114  107  113 1   
   115  107  114 1   
   116  108  115 1   
   117  108  116 1   
   118  108  117 1   
   119  109  118 1   
   120  109  119 1   
   121  109  120 1   
   122  121  122 1   
   123  121  127 1   
   124  122  123 1   
   125  122  125 1   
   126  122  128 1   
   127  123  124 2   
   128  123  132 1   
   129  125  126 1   
   130  125  129 1   
   131  125  130 1   
   132  126  131 1   
   133  132  133 1   
   134  132  137 1   
   135  133  134 1   
   136  133  136 1   
   137  133  138 1   
   138  134  135 2   
   139  134  142 1   
   140  136  139 1   
   141  136  140 1   
   142  136  141 1   
   143  142  143 1   
   144  142  147 1   
   145  143  144 1   
   146  143  146 1   
   147  143  148 1   
   148  144  145 2   
   149  144  152 1   
   150  146  149 1   
   151  146  150 1   
   152  146  151 1   
   153  152  153 1   
   154  152  161 1   
   155  153  154 1   
   156  153  156 1   
   157  153  162 1   
   158  154  155 2   
   159  154  167 1   
   160  156  157 1   
   161  156  163 1   
   162  156  164 1   
   163  157  158 1   
   164  157  165 1   
   165  157  166 1   
   166  158  159 1   
   167  158  160 1   
   168  167  168 1   
   169  167  172 1   
   170  168  169 1   
   171  168  170 1   
   172  168  171 1   
   173  174  176 1   
   174  174  178 1   
   175  175  177 1   
   176  175  179 1   
   177  180  181 1   
   178  180  182 1   
   179  183  184 1   
   180  183  185 1   
   181  186  187 1   
   182  186  188 1   
   183  189  190 1   
   184  189  191 1   
@<TRIPOS>SUBSTRUCTURE
     1 MOL         1 TEMP              0 ****  ****    0 ROOT
