@<TRIPOS>MOLECULE
MOL
  192   187     1     0     0
SMALL
resp


@<TRIPOS>ATOM
      1 C1         -8.9720    0.6910   -2.6720 c3        1 MOL     -0.338056
      2 C2         -8.0470    0.2990   -1.5140 c         1 MOL      0.676789
      3 O1         -6.8660    0.0950   -1.7710 o         1 MOL     -0.620753
      4 H1         -9.4410    1.6500   -2.4520 hc        1 MOL      0.081885
      5 H2         -8.3910    0.7740   -3.5900 hc        1 MOL      0.081885
      6 H3         -9.7430   -0.0700   -2.7960 hc        1 MOL      0.081885
      7 N1         -8.5730    0.1280   -0.3510 n         1 MOL     -0.286874
      8 C3         -7.9030   -0.0860    0.9040 c3        1 MOL     -0.050907
      9 C4         -7.3270   -1.5220    1.1430 c         1 MOL      0.481283
     10 O2         -7.3800   -2.2150    2.1740 o         1 MOL     -0.456604
     11 C5         -8.7740    0.2980    2.1020 c3        1 MOL     -0.144889
     12 C6        -10.2450   -0.1540    2.0130 c         1 MOL      0.684395
     13 O3        -10.6450   -0.9090    2.9400 o         1 MOL     -0.656023
     14 O4        -10.9900    0.2320    1.0490 o         1 MOL     -0.656023
     15 H4         -9.5690    0.2400   -0.2440 hn        1 MOL      0.143008
     16 H5         -7.0360    0.5760    0.8900 h1        1 MOL      0.116583
     17 H6         -8.8800    1.3820    2.0520 hc        1 MOL      0.048596
     18 H7         -8.3420   -0.0550    3.0440 hc        1 MOL      0.048596
     19 N2         -6.6970   -2.0720    0.1150 n         1 MOL     -0.155137
     20 C7         -6.1730   -3.4530   -0.0200 c3        1 MOL     -0.013846
     21 C8         -4.9110   -3.5050    0.9130 c         1 MOL      0.371275
     22 O5         -4.7220   -4.2620    1.8910 o         1 MOL     -0.514113
     23 C9         -6.0150   -3.9580   -1.5650 c3        1 MOL      0.076785
     24 C10        -7.2760   -3.8680   -2.3600 c3        1 MOL      0.126678
     25 C11        -8.5040   -4.4640   -1.7460 c3        1 MOL     -0.005822
     26 C12        -9.7720   -4.4010   -2.6190 c3        1 MOL     -0.142375
     27 N3         -9.5330   -5.0600   -3.9360 n4        1 MOL     -0.250696
     28 H8         -6.6020   -1.4510   -0.6820 hn        1 MOL     -0.018942
     29 H9         -6.9520   -4.0220    0.4970 h1        1 MOL      0.051616
     30 H10        -5.7340   -5.0110   -1.5230 hc        1 MOL     -0.016650
     31 H11        -5.2190   -3.4000   -2.0620 hc        1 MOL     -0.016650
     32 H12        -7.1230   -4.4480   -3.2690 hc        1 MOL     -0.048254
     33 H13        -7.4920   -2.8340   -2.6140 hc        1 MOL     -0.048254
     34 H14        -8.6790   -3.9290   -0.8130 hc        1 MOL      0.047891
     35 H15        -8.2870   -5.4950   -1.4530 hc        1 MOL      0.047891
     36 H16       -10.0220   -3.3620   -2.8210 hx        1 MOL      0.137119
     37 H17       -10.4940   -5.0100   -2.0610 hx        1 MOL      0.137119
     38 H18       -10.4090   -5.1330   -4.4330 hn        1 MOL      0.296386
     39 H19        -8.8520   -4.5040   -4.4390 hn        1 MOL      0.296386
     40 H20        -9.2140   -6.0090   -3.8230 hn        1 MOL      0.296386
     41 N4         -3.8640   -2.7270    0.6440 n         1 MOL     -0.281230
     42 C13        -3.7890   -1.6580   -0.3840 c3        1 MOL     -0.023235
     43 C14        -4.0090   -0.2320    0.1480 c         1 MOL      0.415963
     44 O6         -4.4400   -0.0120    1.2810 o         1 MOL     -0.486301
     45 C15        -2.4030   -1.7510   -1.1480 c3        1 MOL     -0.585433
     46 C16        -1.1500   -1.9650   -0.2640 c         1 MOL      0.619844
     47 O7         -0.8930   -1.1430    0.6340 o         1 MOL     -0.612106
     48 O8         -0.4310   -2.9900   -0.4000 o         1 MOL     -0.612106
     49 H21        -3.1130   -2.7810    1.3130 hn        1 MOL      0.350776
     50 H22        -4.5660   -1.7070   -1.1470 h1        1 MOL      0.228655
     51 H23        -2.2700   -0.9790   -1.9070 hc        1 MOL      0.156854
     52 H24        -2.4200   -2.6640   -1.7570 hc        1 MOL      0.156854
     53 N5         -3.8330    0.7770   -0.6890 n         1 MOL     -0.273431
     54 C17        -3.9920    2.2130   -0.3600 c3        1 MOL      0.171801
     55 C18        -2.6970    2.7600    0.2500 c         1 MOL      0.542559
     56 O9         -1.7900    2.0090    0.5310 o         1 MOL     -0.553185
     57 H25        -3.4780    0.5950   -1.6210 hn        1 MOL      0.185796
     58 H26        -4.8150    2.5320    0.2690 h1        1 MOL      0.000802
     59 H27        -4.2140    2.6430   -1.3340 h1        1 MOL      0.000802
     60 N6         -2.7810    4.0310    0.6280 n         1 MOL     -0.418607
     61 C19        -1.7730    4.8440    1.2200 c3        1 MOL      0.135096
     62 C20        -1.8630    6.3210    0.7820 c         1 MOL      0.642509
     63 O10        -2.9450    6.6540    0.2850 o         1 MOL     -0.554138
     64 C21        -1.7460    4.6650    2.7360 c3        1 MOL     -0.479107
     65 C22        -1.3900    3.3230    3.1360 c         1 MOL      0.825623
     66 O11        -0.2010    2.9840    2.9670 o         1 MOL     -0.704846
     67 O12        -2.2050    2.5940    3.7950 o         1 MOL     -0.704846
     68 H28        -3.5040    4.5050    0.0990 hn        1 MOL      0.245133
     69 H29        -0.8490    4.4310    0.8050 h1        1 MOL      0.095151
     70 H30        -2.7120    4.9240    3.1730 hc        1 MOL      0.129210
     71 H31        -1.0520    5.3430    3.2270 hc        1 MOL      0.129210
     72 N7         -0.8580    7.2190    0.9170 n         1 MOL     -0.633835
     73 C23         0.5740    6.8460    1.1530 c3        1 MOL      0.227849
     74 C24         1.3810    6.1810    0.0680 c         1 MOL      0.534406
     75 O13         1.0200    6.2580   -1.0890 o         1 MOL     -0.493493
     76 H32        -1.0340    8.1900    0.7060 hn        1 MOL      0.362832
     77 H33         0.7030    6.1730    1.9970 h1        1 MOL     -0.005184
     78 H34         1.0910    7.7650    1.4440 h1        1 MOL     -0.005184
     79 N8          2.4090    5.3770    0.4880 n         1 MOL     -0.710630
     80 C25         3.1310    4.4880   -0.4490 c3        1 MOL      0.362165
     81 C26         2.1610    3.3830   -0.7520 c         1 MOL      0.795201
     82 O14         1.5740    2.7790    0.1420 o         1 MOL     -0.757894
     83 C27         4.4590    3.8670    0.0690 c3        1 MOL      0.284040
     84 C28         5.4140    5.1100    0.1020 c3        1 MOL     -0.338053
     85 O15         5.1150    2.9580   -0.8150 oh        1 MOL     -0.620733
     86 H35         2.4810    5.1630    1.4730 hn        1 MOL      0.347506
     87 H36         3.2690    5.0120   -1.3920 h1        1 MOL      0.009043
     88 H37         4.2830    3.4920    1.0830 h1        1 MOL      0.029068
     89 H38         5.6790    2.4060   -0.2650 ho        1 MOL      0.390487
     90 H39         5.3490    5.7160   -0.8100 hc        1 MOL      0.082398
     91 H40         5.0360    5.6900    0.9380 hc        1 MOL      0.082398
     92 H41         6.4260    4.7600    0.2710 hc        1 MOL      0.082398
     93 N9          1.9730    3.0720   -2.0880 n         1 MOL     -0.845088
     94 C29         1.1240    2.0540   -2.7620 c3        1 MOL     -0.036534
     95 C30         1.3310    0.6190   -2.1500 c         1 MOL      0.858514
     96 O16         0.8770    0.3260   -1.0410 o         1 MOL     -0.579151
     97 C31        -0.3920    2.4380   -2.7660 c3        1 MOL      0.238656
     98 C32        -0.5370    3.8570   -3.3090 c3        1 MOL      0.130322
     99 C33        -1.1530    1.4470   -3.6450 c3        1 MOL     -0.487590
    100 C34        -1.9570    4.5000   -3.2530 c3        1 MOL     -0.256702
    101 H42         2.6030    3.5410   -2.7240 hn        1 MOL      0.346945
    102 H43         1.3800    1.9870   -3.8190 h1        1 MOL      0.110896
    103 H44        -0.8600    2.4710   -1.7790 hc        1 MOL     -0.012664
    104 H45        -0.1000    3.8470   -4.3060 hc        1 MOL     -0.027237
    105 H46        -0.0400    4.6080   -2.6850 hc        1 MOL     -0.027237
    106 H47        -2.2180    1.6830   -3.5840 hc        1 MOL      0.105777
    107 H48        -0.7810    1.7000   -4.6380 hc        1 MOL      0.105777
    108 H49        -0.9860    0.4170   -3.3300 hc        1 MOL      0.105777
    109 H50        -2.5950    3.9740   -3.9580 hc        1 MOL      0.060270
    110 H51        -2.3160    4.5300   -2.2200 hc        1 MOL      0.060270
    111 H52        -1.8980    5.5310   -3.6060 hc        1 MOL      0.060270
    112 N10         2.0190   -0.2130   -2.9000 n         1 MOL     -0.459367
    113 C35         2.5120   -1.5730   -2.5230 c3        1 MOL      0.071698
    114 C36         4.0250   -1.7830   -2.7120 c         1 MOL      0.576878
    115 O17         4.5640   -2.8640   -2.8870 o         1 MOL     -0.603934
    116 C37         1.8250   -2.6450   -3.2790 c3        1 MOL      0.331867
    117 C38         1.8840   -2.3520   -4.7650 c3        1 MOL     -0.292990
    118 O18         0.4410   -2.6270   -3.0220 oh        1 MOL     -0.550994
    119 H53         2.2450    0.1320   -3.8330 hn        1 MOL      0.187107
    120 H54         2.3090   -1.7340   -1.4620 h1        1 MOL     -0.021086
    121 H55         2.2760   -3.6380   -3.2270 h1        1 MOL      0.034767
    122 H56         0.2890   -2.7900   -2.0930 ho        1 MOL      0.290024
    123 H57         2.8390   -2.0460   -5.1800 hc        1 MOL      0.069916
    124 H58         1.5430   -3.2280   -5.3160 hc        1 MOL      0.069916
    125 H59         1.1540   -1.5830   -5.0330 hc        1 MOL      0.069916
    126 N11         4.7980   -0.6980   -2.7420 n         1 MOL     -0.362674
    127 C39         6.2840   -0.6320   -3.0280 c3        1 MOL      0.045212
    128 C40         6.9890   -1.0970   -1.7470 c         1 MOL      0.515201
    129 O19         7.7210   -0.3490   -1.1310 o         1 MOL     -0.507853
    130 C41         6.5800    0.8590   -3.3910 c3        1 MOL      0.575167
    131 C42         7.9570    1.1560   -3.9700 c3        1 MOL     -0.386313
    132 O20         5.6660    1.4220   -4.2600 oh        1 MOL     -0.676109
    133 H60         4.4030    0.0680   -2.2090 hn        1 MOL      0.168183
    134 H61         6.5800   -1.2040   -3.9020 h1        1 MOL      0.087959
    135 H62         6.4180    1.4930   -2.5150 h1        1 MOL     -0.068232
    136 H63         5.4420    2.2930   -3.9100 ho        1 MOL      0.401526
    137 H64         8.6850    0.6240   -3.3570 hc        1 MOL      0.083209
    138 H65         7.9460    0.8530   -5.0120 hc        1 MOL      0.083209
    139 H66         8.1840    2.2200   -3.8190 hc        1 MOL      0.083209
    140 N12         6.6840   -2.3500   -1.3310 n         1 MOL     -0.841182
    141 C43         6.5830   -2.8820    0.0930 c3        1 MOL      0.410903
    142 C44         5.3320   -2.2810    0.7970 c         1 MOL      0.339064
    143 O21         4.8340   -1.2080    0.4210 o         1 MOL     -0.436397
    144 C45         7.8250   -2.6790    1.0390 c3        1 MOL     -0.218941
    145 C46         9.1170   -3.1600    0.3450 c3        1 MOL     -0.171145
    146 C47        10.2860   -3.1530    1.2870 c3        1 MOL      0.007505
    147 C48        11.5140   -3.3730    0.4380 c3        1 MOL      0.135877
    148 N13        12.7770   -3.2940    1.3010 n4        1 MOL     -0.356134
    149 H67         6.1250   -2.8230   -2.0310 hn        1 MOL      0.411989
    150 H68         6.4810   -3.9590    0.1500 h1        1 MOL      0.008432
    151 H69         7.5850   -3.1910    1.9650 hc        1 MOL      0.105999
    152 H70         7.9650   -1.6280    1.3040 hc        1 MOL      0.105999
    153 H71         9.4260   -2.4040   -0.3790 hc        1 MOL      0.099845
    154 H72         8.9950   -4.1420   -0.1050 hc        1 MOL      0.099845
    155 H73        10.1750   -3.9440    2.0270 hc        1 MOL      0.026318
    156 H74        10.3500   -2.1960    1.8020 hc        1 MOL      0.026318
    157 H75        11.6130   -2.6140   -0.3400 hx        1 MOL      0.044523
    158 H76        11.3250   -4.3120   -0.0940 hx        1 MOL      0.044523
    159 H77        13.6410   -3.4560    0.8010 hn        1 MOL      0.256063
    160 H78        12.7210   -2.3490    1.6500 hn        1 MOL      0.256063
    161 H79        12.8260   -4.0070    2.0100 hn        1 MOL      0.256063
    162 N14         4.8500   -2.9760    1.8340 n         1 MOL     -0.461289
    163 C49         3.6480   -2.5900    2.6620 c3        1 MOL      0.011660
    164 C50         2.3560   -2.6090    1.7950 c         1 MOL      0.791130
    165 O22         1.6280   -1.6290    1.9140 o         1 MOL     -0.662569
    166 C51         3.5810   -3.5270    3.9310 c3        1 MOL     -0.115718
    167 C52         2.4930   -3.1030    4.8730 c3        1 MOL     -0.096082
    168 C53         2.7970   -1.7610    5.5230 c         1 MOL      0.753266
    169 O23         3.8160   -1.1170    5.3340 o         1 MOL     -0.685930
    170 O24         1.9300   -1.3320    6.2960 o         1 MOL     -0.685930
    171 H80         5.2800   -3.8790    2.0010 hn        1 MOL      0.270937
    172 H81         3.7010   -1.5530    2.9910 h1        1 MOL      0.081894
    173 H82         4.4840   -3.5640    4.5440 hc        1 MOL      0.025254
    174 H83         3.3640   -4.5490    3.6370 hc        1 MOL      0.025254
    175 H84         2.3680   -3.8120    5.6970 hc        1 MOL      0.031305
    176 H85         1.5840   -3.1250    4.2640 hc        1 MOL      0.031305
    177 N15         2.0540   -3.5230    0.8850 n         1 MOL     -0.487420
    178 C54         2.3070   -4.9970    0.7860 c3        1 MOL     -0.075168
    179 H86         3.1920   -5.2530    1.3680 h1        1 MOL      0.059295
    180 H87         1.4460   -5.5400    1.1740 h1        1 MOL      0.059295
    181 H88         2.4680   -5.2690   -0.2580 h1        1 MOL      0.059295
    182 H89         1.3000   -3.2740    0.2520 hn        1 MOL      0.367939
    183 Ca1         0.4800    0.8220    1.5560 Ca        1 MOL      1.828110
    184 O25        -1.4160    0.1480    3.3120 oh        1 MOL     -0.898596
    185 H90        -2.1250   -0.4870    3.4100 ho        1 MOL      0.428887
    186 H91        -1.8300    0.9950    3.4800 ho        1 MOL      0.428887
    187 O26         3.2100    0.9790    1.5820 oh        1 MOL     -0.898596
    188 H92         3.8380    0.3430    1.2320 ho        1 MOL      0.428887
    189 H93         3.6970    1.4540    2.2550 ho        1 MOL      0.428887
    190 O27         1.6020    0.7320    3.9050 oh        1 MOL     -0.898596
    191 H94         0.9080    0.4590    4.5000 ho        1 MOL      0.428887
    192 H95         2.3690    0.8450    4.4630 ho        1 MOL      0.428887
@<TRIPOS>BOND
     1    1    2 1   
     2    1    4 1   
     3    1    5 1   
     4    1    6 1   
     5    2    3 2   
     6    2    7 1   
     7    7    8 1   
     8    7   15 1   
     9    8    9 1   
    10    8   11 1   
    11    8   16 1   
    12    9   10 2   
    13    9   19 1   
    14   11   12 1   
    15   11   17 1   
    16   11   18 1   
    17   12   13 1   
    18   12   14 1   
    19   19   20 1   
    20   19   28 1   
    21   20   21 1   
    22   20   23 1   
    23   20   29 1   
    24   21   22 2   
    25   21   41 1   
    26   23   24 1   
    27   23   30 1   
    28   23   31 1   
    29   24   25 1   
    30   24   32 1   
    31   24   33 1   
    32   25   26 1   
    33   25   34 1   
    34   25   35 1   
    35   26   27 1   
    36   26   36 1   
    37   26   37 1   
    38   27   38 1   
    39   27   39 1   
    40   27   40 1   
    41   41   42 1   
    42   41   49 1   
    43   42   43 1   
    44   42   45 1   
    45   42   50 1   
    46   43   44 2   
    47   43   53 1   
    48   45   46 1   
    49   45   51 1   
    50   45   52 1   
    51   46   47 1   
    52   46   48 1   
    53   53   54 1   
    54   53   57 1   
    55   54   55 1   
    56   54   58 1   
    57   54   59 1   
    58   55   56 2   
    59   55   60 1   
    60   60   61 1   
    61   60   68 1   
    62   61   62 1   
    63   61   64 1   
    64   61   69 1   
    65   62   63 2   
    66   62   72 1   
    67   64   65 1   
    68   64   70 1   
    69   64   71 1   
    70   65   66 1   
    71   65   67 1   
    72   72   73 1   
    73   72   76 1   
    74   73   74 1   
    75   73   77 1   
    76   73   78 1   
    77   74   75 2   
    78   74   79 1   
    79   79   80 1   
    80   79   86 1   
    81   80   81 1   
    82   80   83 1   
    83   80   87 1   
    84   81   82 2   
    85   81   93 1   
    86   83   84 1   
    87   83   85 1   
    88   83   88 1   
    89   84   90 1   
    90   84   91 1   
    91   84   92 1   
    92   85   89 1   
    93   93   94 1   
    94   93  101 1   
    95   94   95 1   
    96   94   97 1   
    97   94  102 1   
    98   95   96 2   
    99   95  112 1   
   100   97   98 1   
   101   97   99 1   
   102   97  103 1   
   103   98  100 1   
   104   98  104 1   
   105   98  105 1   
   106   99  106 1   
   107   99  107 1   
   108   99  108 1   
   109  100  109 1   
   110  100  110 1   
   111  100  111 1   
   112  112  113 1   
   113  112  119 1   
   114  113  114 1   
   115  113  116 1   
   116  113  120 1   
   117  114  115 2   
   118  114  126 1   
   119  116  117 1   
   120  116  118 1   
   121  116  121 1   
   122  117  123 1   
   123  117  124 1   
   124  117  125 1   
   125  118  122 1   
   126  126  127 1   
   127  126  133 1   
   128  127  128 1   
   129  127  130 1   
   130  127  134 1   
   131  128  129 2   
   132  128  140 1   
   133  130  131 1   
   134  130  132 1   
   135  130  135 1   
   136  131  137 1   
   137  131  138 1   
   138  131  139 1   
   139  132  136 1   
   140  140  141 1   
   141  140  149 1   
   142  141  142 1   
   143  141  144 1   
   144  141  150 1   
   145  142  143 2   
   146  142  162 1   
   147  144  145 1   
   148  144  151 1   
   149  144  152 1   
   150  145  146 1   
   151  145  153 1   
   152  145  154 1   
   153  146  147 1   
   154  146  155 1   
   155  146  156 1   
   156  147  148 1   
   157  147  157 1   
   158  147  158 1   
   159  148  159 1   
   160  148  160 1   
   161  148  161 1   
   162  162  163 1   
   163  162  171 1   
   164  163  164 1   
   165  163  166 1   
   166  163  172 1   
   167  164  165 2   
   168  164  177 1   
   169  166  167 1   
   170  166  173 1   
   171  166  174 1   
   172  167  168 1   
   173  167  175 1   
   174  167  176 1   
   175  168  169 1   
   176  168  170 1   
   177  177  178 1   
   178  177  182 1   
   179  178  179 1   
   180  178  180 1   
   181  178  181 1   
   182  184  185 1   
   183  184  186 1   
   184  187  188 1   
   185  187  189 1   
   186  190  191 1   
   187  190  192 1   
@<TRIPOS>SUBSTRUCTURE
     1 MOL         1 TEMP              0 ****  ****    0 ROOT
