@<TRIPOS>MOLECULE
MOL
  188   182     1     0     0
SMALL
resp


@<TRIPOS>ATOM
      1 C1          5.2590   -0.8060    6.2200 c3        1 MOL     -0.373787
      2 C2          4.3700   -0.5180    4.9740 c         1 MOL      0.630636
      3 O1          3.3140    0.1170    5.1290 o         1 MOL     -0.549353
      4 H1          4.6870   -1.3800    6.9490 hc        1 MOL      0.097396
      5 H2          6.1370   -1.3760    5.9160 hc        1 MOL      0.097396
      6 H3          5.5730    0.1370    6.6680 hc        1 MOL      0.097396
      7 N1          4.8910   -0.8390    3.7860 n         1 MOL     -0.645929
      8 C3          4.2270   -0.5110    2.5640 c3        1 MOL      0.394703
      9 C4          4.0440   -1.7870    1.7200 c         1 MOL      0.458445
     10 O2          2.9820   -1.9340    1.0380 o         1 MOL     -0.615084
     11 C5          4.9370    0.5740    1.7790 c3        1 MOL     -0.091726
     12 C6          6.4340    0.3990    1.5150 c         1 MOL      0.563228
     13 O3          6.8460   -0.7730    1.3660 o         1 MOL     -0.638735
     14 O4          7.2310    1.3850    1.3670 o         1 MOL     -0.638735
     15 H4          5.8380   -1.1890    3.7590 hn        1 MOL      0.358764
     16 H5          3.2280   -0.1410    2.7710 h1        1 MOL      0.004798
     17 H6          4.7770    1.4600    2.3890 hc        1 MOL      0.015814
     18 H7          4.4040    0.6180    0.8260 hc        1 MOL      0.015814
     19 N2          5.0040   -2.7330    1.7680 n         1 MOL     -0.586506
     20 C7          4.9220   -4.0870    1.1990 c3        1 MOL      0.180625
     21 C8          5.2870   -4.1070   -0.3010 c         1 MOL      0.440391
     22 O5          5.8210   -5.0530   -0.7680 o         1 MOL     -0.556259
     23 C9          5.6970   -5.0940    2.1630 c3        1 MOL      0.195233
     24 C10         5.2620   -4.9390    3.6080 c3        1 MOL     -0.178861
     25 C11         5.6000   -6.1950    4.4850 c3        1 MOL      0.066856
     26 C12         4.8500   -7.4130    4.0100 c3        1 MOL     -0.011183
     27 N3          5.1140   -8.5770    4.8600 n4        1 MOL     -0.173469
     28 H8          5.8170   -2.3610    2.2240 hn        1 MOL      0.249922
     29 H9          3.8700   -4.3950    1.2570 h1        1 MOL     -0.012794
     30 H10         6.7840   -4.9800    2.0760 hc        1 MOL     -0.021537
     31 H11         5.4740   -6.0940    1.7950 hc        1 MOL     -0.021537
     32 H12         4.2180   -4.6880    3.7500 hc        1 MOL      0.060591
     33 H13         5.9130   -4.1310    3.9440 hc        1 MOL      0.060591
     34 H14         5.4150   -5.9960    5.5420 hc        1 MOL      0.004683
     35 H15         6.6760   -6.3730    4.3840 hc        1 MOL      0.004683
     36 H16         5.3470   -7.6010    3.0510 hx        1 MOL      0.078274
     37 H17         3.7810   -7.2110    3.9410 hx        1 MOL      0.078274
     38 H18         6.1110   -8.6790    5.0310 hn        1 MOL      0.280051
     39 H19         4.7190   -8.7130    5.7740 hn        1 MOL      0.280051
     40 H20         4.8630   -9.4220    4.3740 hn        1 MOL      0.280051
     41 N4          5.0750   -3.0120   -1.0180 n         1 MOL     -0.199845
     42 C13         5.2820   -2.8780   -2.4320 c3        1 MOL     -0.039636
     43 C14         5.5980   -1.3590   -2.7600 c         1 MOL      0.548441
     44 O6          4.9810   -0.7440   -3.6500 o         1 MOL     -0.539434
     45 C15         4.0990   -3.5980   -3.2140 c3        1 MOL     -0.249331
     46 C16         2.6700   -3.2580   -2.7380 c         1 MOL      0.605296
     47 O7          1.7550   -3.8470   -3.3380 o         1 MOL     -0.706313
     48 O8          2.4650   -2.5050   -1.7370 o         1 MOL     -0.706313
     49 H21         4.5650   -2.2120   -0.6530 hn        1 MOL      0.323507
     50 H22         6.2210   -3.4050   -2.6190 h1        1 MOL      0.071495
     51 H23         4.2330   -4.6640   -3.0310 hc        1 MOL      0.102568
     52 H24         4.1980   -3.3620   -4.2700 hc        1 MOL      0.102568
     53 N5          6.4340   -0.7380   -1.9700 n         1 MOL     -0.475955
     54 C17         6.5950    0.7140   -2.0200 c3        1 MOL      0.166209
     55 C18         7.4260    1.2290   -3.1580 c         1 MOL      0.536635
     56 O9          8.2660    0.5590   -3.7350 o         1 MOL     -0.546280
     57 H25         6.7310   -1.1980   -1.1210 hn        1 MOL      0.235074
     58 H26         6.9940    1.0820   -1.0730 h1        1 MOL      0.071123
     59 H27         5.6230    1.2030   -2.0410 h1        1 MOL      0.071123
     60 N6          7.2430    2.4730   -3.5560 n         1 MOL     -0.493315
     61 C19         6.2110    3.4020   -2.9860 c3        1 MOL      0.040009
     62 C20         6.4890    3.7250   -1.4940 c         1 MOL      0.420412
     63 O10         7.6450    4.1590   -1.1980 o         1 MOL     -0.480036
     64 C21         6.2950    4.6790   -3.7900 c3        1 MOL     -0.221577
     65 C22         5.7780    4.5840   -5.2350 c         1 MOL      0.687019
     66 N7          4.8860    5.3950   -5.7820 n         1 MOL     -0.811049
     67 O11         6.2240    3.7390   -6.0100 o         1 MOL     -0.543209
     68 H28         7.6450    2.7660   -4.4300 hn        1 MOL      0.319549
     69 H29         5.2040    3.0440   -3.2150 h1        1 MOL      0.042632
     70 H30         7.2600    5.1720   -3.8690 hc        1 MOL      0.086622
     71 H31         5.5950    5.4100   -3.4010 hc        1 MOL      0.086622
     72 H32         4.4270    6.1470   -5.2910 hn        1 MOL      0.363344
     73 H33         4.4800    5.0380   -6.6290 hn        1 MOL      0.363344
     74 N8          5.4550    3.6760   -0.6390 n         1 MOL     -0.311834
     75 C23         4.0300    3.4960   -1.0120 c3        1 MOL      0.027192
     76 C24         3.0480    3.8260    0.1630 c         1 MOL      0.515868
     77 O12         3.4810    4.3550    1.1950 o         1 MOL     -0.488943
     78 H34         5.7410    3.9080    0.2950 hn        1 MOL      0.255803
     79 H35         3.8520    2.4650   -1.3350 h1        1 MOL      0.015452
     80 H36         3.7090    4.1200   -1.8510 h1        1 MOL      0.015452
     81 N9          1.7400    3.5620   -0.0050 n         1 MOL     -0.503396
     82 C25         0.6640    3.9860    0.9380 c3        1 MOL      0.078264
     83 C26        -0.7050    3.2460    0.6310 c         1 MOL      0.553570
     84 O13        -0.9370    2.6420   -0.4140 o         1 MOL     -0.522963
     85 C27         0.4340    5.5220    0.8400 c3        1 MOL     -0.240358
     86 C28        -0.3460    6.0440    1.9620 ca        1 MOL      0.027726
     87 C29        -1.6300    6.5600    1.7420 ca        1 MOL     -0.099703
     88 C30         0.2400    6.1840    3.2620 ca        1 MOL     -0.099703
     89 C31        -2.3950    7.1210    2.7470 ca        1 MOL     -0.333853
     90 C32        -0.4890    6.6580    4.3920 ca        1 MOL     -0.333853
     91 C33        -1.8040    7.1690    4.0540 ca        1 MOL      0.402931
     92 O14        -2.5010    7.7650    5.0300 oh        1 MOL     -0.500007
     93 H37         1.4770    3.1190   -0.8800 hn        1 MOL      0.270455
     94 H38         1.0680    3.6740    1.8980 h1        1 MOL      0.083788
     95 H39        -0.1570    5.7990   -0.0400 hc        1 MOL      0.114708
     96 H40         1.4220    5.9630    0.9590 hc        1 MOL      0.114708
     97 H41        -2.1450    6.4180    0.8010 ha        1 MOL      0.135243
     98 H42         1.2660    5.9210    3.4960 ha        1 MOL      0.135243
     99 H43        -3.4130    7.4400    2.5490 ha        1 MOL      0.174937
    100 H44        -0.0970    6.7600    5.3900 ha        1 MOL      0.174937
    101 H45        -2.0390    7.6610    5.8600 ho        1 MOL      0.366746
    102 N10        -1.5660    3.2910    1.6520 n         1 MOL     -0.368324
    103 C34        -2.9210    2.6700    1.6870 c3        1 MOL      0.010397
    104 C35        -4.0840    3.3780    0.9730 c         1 MOL      0.554508
    105 O15        -4.0540    4.5980    0.8820 o         1 MOL     -0.494883
    106 C36        -3.2910    2.3990    3.1590 c3        1 MOL      0.065200
    107 C37        -2.5330    1.1950    3.7620 c3        1 MOL      0.064675
    108 C38        -3.2770    3.7040    4.0320 c3        1 MOL     -0.127542
    109 C39        -2.6290   -0.1060    2.9600 c3        1 MOL     -0.100831
    110 H46        -1.2660    3.8820    2.4080 hn        1 MOL      0.204230
    111 H47        -2.7170    1.7050    1.2220 h1        1 MOL      0.005216
    112 H48        -4.2970    1.9940    3.2210 hc        1 MOL      0.020853
    113 H49        -2.9070    0.9580    4.7610 hc        1 MOL     -0.001898
    114 H50        -1.4930    1.4610    3.9570 hc        1 MOL     -0.001898
    115 H51        -3.9080    3.5610    4.9080 hc        1 MOL      0.033476
    116 H52        -2.3070    4.0220    4.4070 hc        1 MOL      0.033476
    117 H53        -3.5730    4.5930    3.4650 hc        1 MOL      0.033476
    118 H54        -2.3070   -0.9070    3.6370 hc        1 MOL      0.012287
    119 H55        -3.6650   -0.2190    2.6460 hc        1 MOL      0.012287
    120 H56        -2.0480   -0.1360    2.0460 hc        1 MOL      0.012287
    121 N11        -5.0990    2.6240    0.5550 n         1 MOL     -0.382145
    122 C40        -6.2120    2.9380   -0.3350 c3        1 MOL     -0.067350
    123 C41        -6.6550    1.7280   -1.2100 c         1 MOL      0.658135
    124 O16        -6.2660    0.6050   -0.9820 o         1 MOL     -0.509780
    125 C42        -7.3170    3.4740    0.5260 c3        1 MOL      0.006213
    126 O17        -7.9300    2.3870    1.1940 oh        1 MOL     -0.583943
    127 H57        -5.0530    1.6590    0.8560 hn        1 MOL      0.267425
    128 H58        -5.7800    3.7650   -0.9020 h1        1 MOL      0.089297
    129 H59        -8.0290    3.9110   -0.1640 h1        1 MOL      0.069260
    130 H60        -6.9630    4.1690    1.2880 h1        1 MOL      0.069260
    131 H61        -8.6040    2.6800    1.8020 ho        1 MOL      0.415168
    132 N12        -7.4220    1.9710   -2.2480 n         1 MOL     -0.559488
    133 C43        -7.8300    1.0400   -3.3420 c3        1 MOL      0.172617
    134 C44        -8.5420   -0.2770   -2.8960 c         1 MOL      0.382760
    135 O18        -8.3670   -1.3440   -3.5350 o         1 MOL     -0.452845
    136 C45        -6.6020    0.9120   -4.2970 c3        1 MOL     -0.402527
    137 H62        -7.7840    2.9040   -2.3190 hn        1 MOL      0.308570
    138 H63        -8.6160    1.6020   -3.8520 h1        1 MOL      0.074424
    139 H64        -6.1810    1.8680   -4.5970 hc        1 MOL      0.139416
    140 H65        -5.8660    0.3320   -3.7400 hc        1 MOL      0.139416
    141 H66        -6.8490    0.4110   -5.2280 hc        1 MOL      0.139416
    142 N13        -9.3810   -0.1890   -1.8230 n         1 MOL     -0.501819
    143 C46       -10.0750   -1.3090   -1.2280 c3        1 MOL      0.367061
    144 C47        -9.2930   -2.6130   -0.8920 c         1 MOL      0.326165
    145 O19        -9.7330   -3.7620   -1.1100 o         1 MOL     -0.472199
    146 C48       -11.3030   -1.5090   -2.0950 c3        1 MOL     -0.282797
    147 H67        -9.4690    0.7820   -1.5770 hn        1 MOL      0.272771
    148 H68       -10.4240   -1.0120   -0.2400 h1        1 MOL     -0.012216
    149 H69       -11.1350   -1.6040   -3.1660 hc        1 MOL      0.072435
    150 H70       -11.6800   -2.4750   -1.7570 hc        1 MOL      0.072435
    151 H71       -12.0150   -0.6910   -1.9780 hc        1 MOL      0.072435
    152 N14        -8.1220   -2.4460   -0.3600 n         1 MOL     -0.165738
    153 C49        -7.1430   -3.5140   -0.1020 c3        1 MOL     -0.279523
    154 C50        -7.0710   -4.0860    1.2870 c         1 MOL      0.536488
    155 O20        -6.9050   -5.2970    1.5680 o         1 MOL     -0.545655
    156 C51        -5.7430   -2.9180   -0.3670 c3        1 MOL      0.551803
    157 C52        -4.7020   -3.9480   -0.7300 c3        1 MOL     -0.373527
    158 C53        -3.3070   -3.3390   -1.0140 c         1 MOL      0.880206
    159 O21        -3.1170   -2.6010   -2.0330 o         1 MOL     -0.781111
    160 O22        -2.3390   -3.7890   -0.3170 o         1 MOL     -0.781111
    161 H72        -7.7900   -1.5280   -0.1150 hn        1 MOL      0.166922
    162 H73        -7.3490   -4.2800   -0.8480 h1        1 MOL      0.161251
    163 H74        -5.3400   -2.2940    0.4320 hc        1 MOL     -0.096837
    164 H75        -5.7140   -2.2460   -1.2230 hc        1 MOL     -0.096837
    165 H76        -4.9700   -4.5310   -1.6120 hc        1 MOL      0.041918
    166 H77        -4.4930   -4.5790    0.1250 hc        1 MOL      0.041918
    167 N15        -7.3990   -3.2390    2.2150 n         1 MOL     -0.258631
    168 C54        -7.7070   -3.5820    3.6140 c3        1 MOL     -0.325790
    169 H78        -6.9580   -3.1370    4.2690 h1        1 MOL      0.136936
    170 H79        -8.6930   -3.1960    3.8750 h1        1 MOL      0.136936
    171 H80        -7.6970   -4.6650    3.7330 h1        1 MOL      0.136936
    172 H81        -7.7190   -2.3560    1.8560 hn        1 MOL      0.200224
    173 Ca1        -0.3510   -2.8330   -1.8820 Ca        1 MOL      1.772095
    174 O23        -0.9050   -3.1820   -4.4880 oh        1 MOL     -0.839892
    175 H82        -0.2510   -3.0110   -5.1540 ho        1 MOL      0.414714
    176 H83        -1.6290   -3.5840   -4.9570 ho        1 MOL      0.414714
    177 O24         0.8840   -3.5530    0.2850 oh        1 MOL     -0.839892
    178 H84         0.8180   -3.9680    1.1450 ho        1 MOL      0.414714
    179 H85         1.7390   -3.1160    0.2990 ho        1 MOL      0.414714
    180 O25         0.0440   -0.3330   -3.0950 oh        1 MOL     -0.839892
    181 H86         0.7790    0.1700   -2.7430 ho        1 MOL      0.414714
    182 H87        -0.0440   -0.0260   -4.0030 ho        1 MOL      0.414714
    183 O26        -0.7060   -5.3920   -2.2980 oh        1 MOL     -0.839892
    184 H88        -1.3290   -5.9250   -1.8080 ho        1 MOL      0.414714
    185 H89         0.0200   -5.9820   -2.4960 ho        1 MOL      0.414714
    186 O27        -1.3010   -0.8140   -0.5230 oh        1 MOL     -0.839892
    187 H90        -1.9750   -0.2050   -0.8190 ho        1 MOL      0.414714
    188 H91        -0.8050   -0.3180    0.1210 ho        1 MOL      0.414714
@<TRIPOS>BOND
     1    1    2 1   
     2    1    4 1   
     3    1    5 1   
     4    1    6 1   
     5    2    3 2   
     6    2    7 1   
     7    7    8 1   
     8    7   15 1   
     9    8    9 1   
    10    8   11 1   
    11    8   16 1   
    12    9   10 2   
    13    9   19 1   
    14   11   12 1   
    15   11   17 1   
    16   11   18 1   
    17   12   13 1   
    18   12   14 1   
    19   19   20 1   
    20   19   28 1   
    21   20   21 1   
    22   20   23 1   
    23   20   29 1   
    24   21   22 2   
    25   21   41 1   
    26   23   24 1   
    27   23   30 1   
    28   23   31 1   
    29   24   25 1   
    30   24   32 1   
    31   24   33 1   
    32   25   26 1   
    33   25   34 1   
    34   25   35 1   
    35   26   27 1   
    36   26   36 1   
    37   26   37 1   
    38   27   38 1   
    39   27   39 1   
    40   27   40 1   
    41   41   42 1   
    42   41   49 1   
    43   42   43 1   
    44   42   45 1   
    45   42   50 1   
    46   43   44 2   
    47   43   53 1   
    48   45   46 1   
    49   45   51 1   
    50   45   52 1   
    51   46   47 1   
    52   46   48 1   
    53   53   54 1   
    54   53   57 1   
    55   54   55 1   
    56   54   58 1   
    57   54   59 1   
    58   55   56 2   
    59   55   60 1   
    60   60   61 1   
    61   60   68 1   
    62   61   62 1   
    63   61   64 1   
    64   61   69 1   
    65   62   63 2   
    66   62   74 1   
    67   64   65 1   
    68   64   70 1   
    69   64   71 1   
    70   65   66 1   
    71   65   67 2   
    72   66   72 1   
    73   66   73 1   
    74   74   75 1   
    75   74   78 1   
    76   75   76 1   
    77   75   79 1   
    78   75   80 1   
    79   76   77 2   
    80   76   81 1   
    81   81   82 1   
    82   81   93 1   
    83   82   83 1   
    84   82   85 1   
    85   82   94 1   
    86   83   84 2   
    87   83  102 1   
    88   85   86 1   
    89   85   95 1   
    90   85   96 1   
    91   86   87 ar  
    92   86   88 ar  
    93   87   89 ar  
    94   87   97 1   
    95   88   90 ar  
    96   88   98 1   
    97   89   91 ar  
    98   89   99 1   
    99   90   91 ar  
   100   90  100 1   
   101   91   92 1   
   102   92  101 1   
   103  102  103 1   
   104  102  110 1   
   105  103  104 1   
   106  103  106 1   
   107  103  111 1   
   108  104  105 2   
   109  104  121 1   
   110  106  107 1   
   111  106  108 1   
   112  106  112 1   
   113  107  109 1   
   114  107  113 1   
   115  107  114 1   
   116  108  115 1   
   117  108  116 1   
   118  108  117 1   
   119  109  118 1   
   120  109  119 1   
   121  109  120 1   
   122  121  122 1   
   123  121  127 1   
   124  122  123 1   
   125  122  125 1   
   126  122  128 1   
   127  123  124 2   
   128  123  132 1   
   129  125  126 1   
   130  125  129 1   
   131  125  130 1   
   132  126  131 1   
   133  132  133 1   
   134  132  137 1   
   135  133  134 1   
   136  133  136 1   
   137  133  138 1   
   138  134  135 2   
   139  134  142 1   
   140  136  139 1   
   141  136  140 1   
   142  136  141 1   
   143  142  143 1   
   144  142  147 1   
   145  143  144 1   
   146  143  146 1   
   147  143  148 1   
   148  144  145 2   
   149  144  152 1   
   150  146  149 1   
   151  146  150 1   
   152  146  151 1   
   153  152  153 1   
   154  152  161 1   
   155  153  154 1   
   156  153  156 1   
   157  153  162 1   
   158  154  155 2   
   159  154  167 1   
   160  156  157 1   
   161  156  163 1   
   162  156  164 1   
   163  157  158 1   
   164  157  165 1   
   165  157  166 1   
   166  158  159 1   
   167  158  160 1   
   168  167  168 1   
   169  167  172 1   
   170  168  169 1   
   171  168  170 1   
   172  168  171 1   
   173  174  175 1   
   174  174  176 1   
   175  177  178 1   
   176  177  179 1   
   177  180  181 1   
   178  180  182 1   
   179  183  184 1   
   180  183  185 1   
   181  186  187 1   
   182  186  188 1   
@<TRIPOS>SUBSTRUCTURE
     1 MOL         1 TEMP              0 ****  ****    0 ROOT
