@<TRIPOS>MOLECULE
MOL
  178   175     1     0     0
SMALL
resp


@<TRIPOS>ATOM
      1 C1        -10.6270   -6.4880   -2.1050 c3        1 MOL     -0.294193
      2 C2         -9.4190   -5.9100   -1.3740 c         1 MOL      0.739009
      3 O1         -8.4860   -6.5990   -0.9770 o         1 MOL     -0.603321
      4 H1        -10.7680   -5.9590   -3.0480 hc        1 MOL      0.064354
      5 H2        -10.4610   -7.5460   -2.3050 hc        1 MOL      0.064354
      6 H3        -11.5170   -6.3700   -1.4870 hc        1 MOL      0.064354
      7 N1         -9.3980   -4.6530   -1.0600 n         1 MOL     -0.745774
      8 C3        -10.2040   -3.5450   -1.4630 c3        1 MOL      0.413418
      9 C4        -10.7430   -2.8000   -0.2680 c         1 MOL      0.514263
     10 O2        -10.3850   -3.0520    0.8870 o         1 MOL     -0.478161
     11 C5         -9.4580   -2.5750   -2.4070 c3        1 MOL     -0.002792
     12 C6         -8.1560   -1.9050   -1.8880 c         1 MOL      0.702312
     13 O3         -8.0540   -0.6580   -1.9420 o         1 MOL     -0.754114
     14 O4         -7.3080   -2.5650   -1.3710 o         1 MOL     -0.754114
     15 H4         -8.6370   -4.4500   -0.4330 hn        1 MOL      0.408166
     16 H5        -11.1340   -3.8280   -1.9510 h1        1 MOL     -0.075570
     17 H6        -10.1340   -1.7710   -2.7020 hc        1 MOL     -0.052494
     18 H7         -9.2310   -3.0370   -3.3620 hc        1 MOL     -0.052494
     19 N2        -11.6020   -1.8790   -0.5900 n         1 MOL     -0.569781
     20 C7        -12.4340   -1.1170    0.3820 c3        1 MOL      0.291020
     21 C8        -11.5560   -0.2000    1.4160 c         1 MOL      0.232085
     22 O5        -12.1380    0.3320    2.4170 o         1 MOL     -0.528927
     23 C9        -13.4530   -2.0430    1.0540 c3        1 MOL     -0.388548
     24 H8        -11.8020   -1.8990   -1.5740 hn        1 MOL      0.300611
     25 H9        -12.9720   -0.3050   -0.1030 h1        1 MOL      0.027473
     26 H10       -14.1970   -1.4260    1.5500 hc        1 MOL      0.112568
     27 H11       -13.8720   -2.6670    0.2560 hc        1 MOL      0.112568
     28 H12       -12.8900   -2.7270    1.6920 hc        1 MOL      0.112568
     29 N3        -10.2460   -0.0350    1.3770 n         1 MOL      0.047789
     30 C10        -9.4560    0.8530    2.2520 c3        1 MOL      0.067122
     31 C11        -8.4020    1.7310    1.4890 c         1 MOL      0.318623
     32 O6         -8.1640    1.5340    0.2720 o         1 MOL     -0.523721
     33 C12        -8.6650    0.1160    3.3620 c3        1 MOL     -0.109222
     34 C13        -7.6390   -0.9410    2.8650 c         1 MOL      0.571632
     35 O7         -7.3850   -1.0670    1.6560 o         1 MOL     -0.635624
     36 O8         -7.1850   -1.7570    3.6870 o         1 MOL     -0.635624
     37 H13        -9.6930   -0.4130    0.6170 hn        1 MOL      0.057858
     38 H14       -10.1100    1.5730    2.7340 h1        1 MOL      0.005368
     39 H15        -9.3730   -0.4130    3.9950 hc        1 MOL      0.037763
     40 H16        -8.1660    0.8220    4.0220 hc        1 MOL      0.037763
     41 N4         -7.7520    2.6520    2.1800 n         1 MOL     -0.184461
     42 C14        -6.7700    3.5960    1.6760 c3        1 MOL     -0.559240
     43 C15        -5.5170    3.0910    1.0340 c         1 MOL      0.976724
     44 O9         -5.2450    1.9320    1.1470 o         1 MOL     -0.640260
     45 H17        -7.9910    2.7510    3.1600 hn        1 MOL      0.279563
     46 H18        -6.4900    4.1380    2.5800 h1        1 MOL      0.180618
     47 H19        -7.3250    4.2140    0.9730 h1        1 MOL      0.180618
     48 N5         -4.7690    4.0470    0.4200 n         1 MOL     -0.705836
     49 C16        -3.6840    3.6610   -0.4810 c3        1 MOL      0.138737
     50 C17        -2.4170    4.5670   -0.3920 c         1 MOL      0.659289
     51 O10        -2.3060    5.7210   -0.0310 o         1 MOL     -0.532124
     52 C18        -4.2240    3.7480   -1.9250 c3        1 MOL     -0.271398
     53 C19        -5.4110    2.8780   -2.2210 c         1 MOL      0.747382
     54 N6         -6.5200    3.4190   -2.7300 n         1 MOL     -0.792770
     55 O11        -5.4210    1.6790   -1.9710 o         1 MOL     -0.643590
     56 H20        -4.7880    5.0080    0.7350 hn        1 MOL      0.317509
     57 H21        -3.3360    2.6570   -0.2540 h1        1 MOL      0.086580
     58 H22        -3.5000    3.7920   -2.7360 hc        1 MOL      0.066595
     59 H23        -4.5810    4.7800   -1.9110 hc        1 MOL      0.066595
     60 H24        -6.6510    4.4180   -2.7310 hn        1 MOL      0.373902
     61 H25        -7.2970    2.8200   -2.9810 hn        1 MOL      0.373902
     62 N7         -1.2820    3.9850   -0.8330 n         1 MOL     -0.625240
     63 C20         0.0210    4.6530   -1.1220 c3        1 MOL      0.285403
     64 C21         0.6850    5.2600    0.0590 c         1 MOL      0.510941
     65 O12         0.1460    5.2340    1.1380 o         1 MOL     -0.514907
     66 H26        -1.3440    3.0200   -1.1420 hn        1 MOL      0.294659
     67 H27        -0.0890    5.4290   -1.8720 h1        1 MOL     -0.012899
     68 H28         0.6880    3.8770   -1.5170 h1        1 MOL     -0.012899
     69 N8          1.8090    5.9300   -0.0410 n         1 MOL     -0.363205
     70 C22         2.7030    6.0000   -1.2180 c3        1 MOL     -0.061741
     71 C23         3.8960    5.0600   -1.0250 c         1 MOL      0.590864
     72 O13         4.5380    4.7810   -2.0780 o         1 MOL     -0.606616
     73 C24         3.0610    7.4010   -1.6030 c3        1 MOL      0.404326
     74 C25         1.8810    8.3050   -2.0130 c3        1 MOL     -0.447223
     75 O14         3.7090    7.9570   -0.4970 oh        1 MOL     -0.620560
     76 H29         2.1480    6.3690    0.7970 hn        1 MOL      0.262295
     77 H30         2.2370    5.6550   -2.1460 h1        1 MOL      0.064577
     78 H31         3.7620    7.3430   -2.4310 h1        1 MOL     -0.007747
     79 H32         4.2070    8.7290   -0.7490 ho        1 MOL      0.396305
     80 H33         1.3490    7.8110   -2.8380 hc        1 MOL      0.106643
     81 H34         1.1480    8.2870   -1.2000 hc        1 MOL      0.106643
     82 H35         2.2940    9.1760   -2.5210 hc        1 MOL      0.106643
     83 N9          4.2870    4.5790    0.1490 n         1 MOL     -0.501260
     84 C26         5.3360    3.5570    0.3590 c3        1 MOL     -0.021736
     85 C27         5.0060    2.4590    1.4400 c         1 MOL      0.447646
     86 O15         5.0720    2.7180    2.6860 o         1 MOL     -0.597785
     87 C28         6.6970    4.3440    0.7660 c3        1 MOL      0.122301
     88 C29         7.0650    5.4960   -0.2020 c3        1 MOL      0.117658
     89 C30         7.8150    3.2870    0.8490 c3        1 MOL     -0.111765
     90 C31         8.0510    6.4760    0.4080 c3        1 MOL     -0.227848
     91 H36         3.6310    4.7320    0.9080 hn        1 MOL      0.316894
     92 H37         5.6080    3.0770   -0.5720 h1        1 MOL      0.108653
     93 H38         6.6010    4.8380    1.7320 hc        1 MOL      0.010031
     94 H39         6.2270    6.1920   -0.2670 hc        1 MOL     -0.012529
     95 H40         7.3690    5.1430   -1.1880 hc        1 MOL     -0.012529
     96 H41         8.0210    2.9210   -0.1610 hc        1 MOL      0.012722
     97 H42         8.6890    3.8160    1.2140 hc        1 MOL      0.012722
     98 H43         7.5470    2.4680    1.5210 hc        1 MOL      0.012722
     99 H44         7.7360    6.6590    1.4340 hc        1 MOL      0.037358
    100 H45         9.0190    6.0000    0.5330 hc        1 MOL      0.037358
    101 H46         8.1800    7.3250   -0.2510 hc        1 MOL      0.037358
    102 N10         4.6790    1.2580    1.1040 n         1 MOL     -0.037367
    103 C32         4.5540    0.7300   -0.2550 c3        1 MOL     -0.211201
    104 C33         5.7980   -0.1650   -0.4680 c         1 MOL      0.520350
    105 O16         6.1650   -0.3630   -1.6380 o         1 MOL     -0.551942
    106 C34         3.2960   -0.1580   -0.2610 c3        1 MOL     -0.168290
    107 C35         2.0230    0.6930    0.0970 c         1 MOL      0.585821
    108 O17         1.4960    0.5060    1.2000 o         1 MOL     -0.650752
    109 O18         1.6810    1.5540   -0.7550 o         1 MOL     -0.650752
    110 H47         4.4580    0.6170    1.8550 hn        1 MOL      0.233923
    111 H48         4.4470    1.4460   -1.0750 h1        1 MOL      0.151208
    112 H49         3.2900   -1.0800    0.3160 hc        1 MOL      0.051953
    113 H50         3.1270   -0.5140   -1.2730 hc        1 MOL      0.051953
    114 N11         6.6050   -0.5320    0.5480 n         1 MOL     -0.503369
    115 C36         7.9530   -1.1220    0.4430 c3        1 MOL      0.465415
    116 C37         8.2180   -2.0850    1.5880 c         1 MOL      0.138797
    117 O19         7.8930   -1.7660    2.7960 o         1 MOL     -0.472785
    118 C38         8.9370    0.1060    0.3470 c3        1 MOL     -0.419339
    119 C39        10.3210   -0.3090   -0.0920 ca        1 MOL      0.110744
    120 C40        11.1540   -1.0890    0.7250 ca        1 MOL     -0.136905
    121 C41        10.9040    0.1410   -1.2860 ca        1 MOL     -0.136905
    122 C42        12.3910   -1.5950    0.3730 ca        1 MOL     -0.177381
    123 C43        12.2530   -0.3250   -1.6930 ca        1 MOL     -0.177381
    124 C44        12.9150   -1.2530   -0.9000 ca        1 MOL     -0.069710
    125 H51         6.1820   -0.4840    1.4610 hn        1 MOL      0.237499
    126 H52         8.0250   -1.6550   -0.5050 h1        1 MOL     -0.031075
    127 H53         8.9750    0.7290    1.2470 hc        1 MOL      0.157000
    128 H54         8.6150    0.6710   -0.5290 hc        1 MOL      0.157000
    129 H55        10.7690   -1.3700    1.7040 ha        1 MOL      0.113640
    130 H56        10.3340    0.7950   -1.9340 ha        1 MOL      0.113640
    131 H57        12.9830   -2.2880    0.9540 ha        1 MOL      0.121760
    132 H58        12.6280   -0.0550   -2.6730 ha        1 MOL      0.121760
    133 H59        13.7890   -1.6510   -1.3940 ha        1 MOL      0.084001
    134 N12         8.8570   -3.2240    1.2530 n         1 MOL      0.262233
    135 C45         9.2760   -3.7140   -0.0440 c3        1 MOL      0.022966
    136 C46         7.9970   -4.3150   -0.7640 c         1 MOL      0.426900
    137 O20         7.9320   -4.1850   -1.9580 o         1 MOL     -0.538500
    138 C47        10.3390   -4.7630    0.2520 c3        1 MOL     -0.127508
    139 C48        10.6940   -4.7020    1.7250 c3        1 MOL      0.069850
    140 C49         9.3820   -4.1180    2.2800 c3        1 MOL     -0.289646
    141 H60         9.6730   -2.9320   -0.6900 h1        1 MOL      0.059886
    142 H61         9.9010   -5.7370    0.0670 hc        1 MOL      0.038558
    143 H62        11.1960   -4.5310   -0.3750 hc        1 MOL      0.038558
    144 H63        11.0150   -5.6810    2.0810 hc        1 MOL      0.000861
    145 H64        11.5270   -4.0120    1.8030 hc        1 MOL      0.000861
    146 H65         8.7210   -4.9770    2.4380 h1        1 MOL      0.104687
    147 H66         9.5040   -3.6230    3.2400 h1        1 MOL      0.104687
    148 N13         6.9660   -4.7830   -0.0210 n         1 MOL     -0.306865
    149 C50         5.6480   -5.2990   -0.4960 c3        1 MOL      0.154268
    150 C51         5.6740   -6.7690   -0.8420 c         1 MOL      0.346876
    151 O21         5.6720   -7.6310    0.0730 o         1 MOL     -0.556126
    152 C52         4.6810   -5.0020    0.6400 c3        1 MOL     -0.097727
    153 C53         4.2210   -3.5430    0.6000 c3        1 MOL      0.048026
    154 C54         3.2380   -3.1870    1.7650 c         1 MOL      0.621801
    155 O22         2.1050   -3.7400    1.8600 o         1 MOL     -0.683250
    156 O23         3.7080   -2.4430    2.7350 o         1 MOL     -0.683250
    157 H67         7.0260   -4.7060    0.9910 hn        1 MOL      0.188557
    158 H68         5.4670   -4.6190   -1.3350 h1        1 MOL      0.087478
    159 H69         5.2110   -5.1950    1.5730 hc        1 MOL      0.034992
    160 H70         3.7330   -5.5490    0.6410 hc        1 MOL      0.034992
    161 H71         3.6520   -3.4230   -0.3190 hc        1 MOL     -0.051024
    162 H72         5.0630   -2.8520    0.6150 hc        1 MOL     -0.051024
    163 N14         5.7630   -7.1100   -2.1230 n         1 MOL     -0.269308
    164 C55         5.9040   -6.3130   -3.3280 c3        1 MOL     -0.112792
    165 H73         5.1850   -5.4940   -3.3070 h1        1 MOL      0.071310
    166 H74         6.9150   -5.9070   -3.3790 h1        1 MOL      0.071310
    167 H75         5.7180   -6.9370   -4.2010 h1        1 MOL      0.071310
    168 H76         5.5420   -8.1000   -2.1290 hn        1 MOL      0.240651
    169 Ca1        -5.9510   -0.2250   -0.4570 Ca        1 MOL      1.695734
    170 O24        -4.9040   -0.9750   -2.9150 oh        1 MOL     -0.757374
    171 H77        -4.2020   -1.2240   -3.5190 ho        1 MOL      0.393224
    172 H78        -5.7020   -1.1340   -3.4170 ho        1 MOL      0.393224
    173 O25        -3.3420   -0.1080   -0.5990 oh        1 MOL     -0.757374
    174 H79        -2.7680   -0.0120    0.1580 ho        1 MOL      0.393224
    175 H80        -2.7450   -0.2290   -1.3350 ho        1 MOL      0.393224
    176 O26        -4.7680   -2.3130    0.4100 oh        1 MOL     -0.757374
    177 H81        -4.8300   -2.5560    1.3350 ho        1 MOL      0.393224
    178 H82        -3.9960   -2.7800    0.0890 ho        1 MOL      0.393224
@<TRIPOS>BOND
     1    1    2 1   
     2    1    4 1   
     3    1    5 1   
     4    1    6 1   
     5    2    3 2   
     6    2    7 1   
     7    7    8 1   
     8    7   15 1   
     9    8    9 1   
    10    8   11 1   
    11    8   16 1   
    12    9   10 2   
    13    9   19 1   
    14   11   12 1   
    15   11   17 1   
    16   11   18 1   
    17   12   13 1   
    18   12   14 1   
    19   19   20 1   
    20   19   24 1   
    21   20   21 1   
    22   20   23 1   
    23   20   25 1   
    24   21   22 2   
    25   21   29 1   
    26   23   26 1   
    27   23   27 1   
    28   23   28 1   
    29   29   30 1   
    30   29   37 1   
    31   30   31 1   
    32   30   33 1   
    33   30   38 1   
    34   31   32 2   
    35   31   41 1   
    36   33   34 1   
    37   33   39 1   
    38   33   40 1   
    39   34   35 1   
    40   34   36 1   
    41   41   42 1   
    42   41   45 1   
    43   42   43 1   
    44   42   46 1   
    45   42   47 1   
    46   43   44 2   
    47   43   48 1   
    48   48   49 1   
    49   48   56 1   
    50   49   50 1   
    51   49   52 1   
    52   49   57 1   
    53   50   51 2   
    54   50   62 1   
    55   52   53 1   
    56   52   58 1   
    57   52   59 1   
    58   53   54 1   
    59   53   55 2   
    60   54   60 1   
    61   54   61 1   
    62   62   63 1   
    63   62   66 1   
    64   63   64 1   
    65   63   67 1   
    66   63   68 1   
    67   64   65 2   
    68   64   69 1   
    69   69   70 1   
    70   69   76 1   
    71   70   71 1   
    72   70   73 1   
    73   70   77 1   
    74   71   72 2   
    75   71   83 1   
    76   73   74 1   
    77   73   75 1   
    78   73   78 1   
    79   74   80 1   
    80   74   81 1   
    81   74   82 1   
    82   75   79 1   
    83   83   84 1   
    84   83   91 1   
    85   84   85 1   
    86   84   87 1   
    87   84   92 1   
    88   85   86 2   
    89   85  102 1   
    90   87   88 1   
    91   87   89 1   
    92   87   93 1   
    93   88   90 1   
    94   88   94 1   
    95   88   95 1   
    96   89   96 1   
    97   89   97 1   
    98   89   98 1   
    99   90   99 1   
   100   90  100 1   
   101   90  101 1   
   102  102  103 1   
   103  102  110 1   
   104  103  104 1   
   105  103  106 1   
   106  103  111 1   
   107  104  105 2   
   108  104  114 1   
   109  106  107 1   
   110  106  112 1   
   111  106  113 1   
   112  107  108 1   
   113  107  109 1   
   114  114  115 1   
   115  114  125 1   
   116  115  116 1   
   117  115  118 1   
   118  115  126 1   
   119  116  117 2   
   120  116  134 1   
   121  118  119 1   
   122  118  127 1   
   123  118  128 1   
   124  119  120 ar  
   125  119  121 ar  
   126  120  122 ar  
   127  120  129 1   
   128  121  123 ar  
   129  121  130 1   
   130  122  124 ar  
   131  122  131 1   
   132  123  124 ar  
   133  123  132 1   
   134  124  133 1   
   135  134  135 1   
   136  134  140 1   
   137  135  136 1   
   138  135  138 1   
   139  135  141 1   
   140  136  137 2   
   141  136  148 1   
   142  138  139 1   
   143  138  142 1   
   144  138  143 1   
   145  139  140 1   
   146  139  144 1   
   147  139  145 1   
   148  140  146 1   
   149  140  147 1   
   150  148  149 1   
   151  148  157 1   
   152  149  150 1   
   153  149  152 1   
   154  149  158 1   
   155  150  151 2   
   156  150  163 1   
   157  152  153 1   
   158  152  159 1   
   159  152  160 1   
   160  153  154 1   
   161  153  161 1   
   162  153  162 1   
   163  154  155 1   
   164  154  156 1   
   165  163  164 1   
   166  163  168 1   
   167  164  165 1   
   168  164  166 1   
   169  164  167 1   
   170  170  171 1   
   171  170  172 1   
   172  173  174 1   
   173  173  175 1   
   174  176  177 1   
   175  176  178 1   
@<TRIPOS>SUBSTRUCTURE
     1 MOL         1 TEMP              0 ****  ****    0 ROOT
