@<TRIPOS>MOLECULE
MOL
  189   185     1     0     0
SMALL
resp


@<TRIPOS>ATOM
      1 C1         -5.2300   -4.7430   -3.1660 c3        1 MOL     -0.352667
      2 C2         -5.6710   -3.6190   -2.1630 c         1 MOL      0.762532
      3 O1         -5.0060   -3.2400   -1.2130 o         1 MOL     -0.642583
      4 H1         -4.1770   -4.6120   -3.4170 hc        1 MOL      0.096434
      5 H2         -5.3740   -5.7190   -2.7050 hc        1 MOL      0.096434
      6 H3         -5.8300   -4.6760   -4.0740 hc        1 MOL      0.096434
      7 N1         -6.8570   -2.9970   -2.3490 n         1 MOL     -0.756932
      8 C3         -7.4350   -1.8610   -1.6700 c3        1 MOL      0.175436
      9 C4         -6.3860   -0.7550   -1.5250 c         1 MOL      0.133801
     10 O2         -5.8000   -0.6350   -0.4530 o         1 MOL     -0.257427
     11 C5         -8.2190   -2.3350   -0.4440 c3        1 MOL     -0.017929
     12 C6         -7.7690   -3.5700    0.3190 c         1 MOL      0.703489
     13 O3         -6.7310   -3.4500    1.0700 o         1 MOL     -0.718808
     14 O4         -8.5930   -4.5740    0.3740 o         1 MOL     -0.718808
     15 H4         -7.4530   -3.5270   -2.9630 hn        1 MOL      0.349219
     16 H5         -8.2310   -1.4290   -2.2800 h1        1 MOL      0.059658
     17 H6         -9.2440   -2.5520   -0.7460 hc        1 MOL     -0.015147
     18 H7         -8.2840   -1.4630    0.2150 hc        1 MOL     -0.015147
     19 N2         -5.9300   -0.2310   -2.6610 n         1 MOL     -0.245223
     20 C7         -4.9490    0.8770   -2.8770 c3        1 MOL     -0.028702
     21 C8         -5.5560    2.1370   -2.2730 c         1 MOL      0.305432
     22 O5         -5.9600    3.0490   -3.0660 o         1 MOL     -0.530795
     23 C9         -3.5110    0.4380   -2.4060 c3        1 MOL      0.255539
     24 C10        -2.4210    1.6050   -2.3730 c3        1 MOL      0.025893
     25 C11        -3.0080   -0.7020   -3.3450 c3        1 MOL     -0.390922
     26 C12        -2.5290    2.5320   -3.5800 c3        1 MOL     -0.344341
     27 H8         -6.3530   -0.6210   -3.4940 hn        1 MOL      0.260189
     28 H9         -4.9010    1.0550   -3.9490 h1        1 MOL      0.062852
     29 H10        -3.5230    0.0950   -1.3730 hc        1 MOL     -0.086092
     30 H11        -1.4410    1.1380   -2.2630 hc        1 MOL      0.062264
     31 H12        -2.5780    2.1960   -1.4730 hc        1 MOL      0.062264
     32 H13        -3.2280   -0.3840   -4.3590 hc        1 MOL      0.082377
     33 H14        -1.9160   -0.7600   -3.2600 hc        1 MOL      0.082377
     34 H15        -3.4660   -1.6700   -3.1170 hc        1 MOL      0.082377
     35 H16        -1.6440    3.1630   -3.5550 hc        1 MOL      0.078138
     36 H17        -2.5230    1.9560   -4.5020 hc        1 MOL      0.078138
     37 H18        -3.4770    3.0710   -3.5350 hc        1 MOL      0.078138
     38 N3         -5.8240    2.1800   -0.9730 n         1 MOL      0.049888
     39 C13        -6.5770    3.2870   -0.4570 c3        1 MOL      0.007118
     40 C14        -5.8750    4.6420   -0.2710 c         1 MOL      0.607747
     41 O6         -6.3720    5.5510   -0.9700 o         1 MOL     -0.574375
     42 C15        -7.2350    2.8670    0.8390 c3        1 MOL     -0.142768
     43 C16        -8.4080    1.8850    0.8910 c         1 MOL      0.758079
     44 O7         -8.5180    1.0980    1.8440 o         1 MOL     -0.717523
     45 O8         -9.3050    2.2430    0.1300 o         1 MOL     -0.717523
     46 H19        -5.6280    1.3850   -0.3910 hn        1 MOL      0.051492
     47 H20        -7.3760    3.4680   -1.1760 h1        1 MOL      0.041505
     48 H21        -7.6410    3.7060    1.3910 hc        1 MOL      0.043509
     49 H22        -6.4210    2.4500    1.4300 hc        1 MOL      0.043509
     50 N4         -4.8260    4.7940    0.5540 n         1 MOL     -0.685720
     51 C17        -4.0110    3.7530    1.2000 c3        1 MOL      0.218040
     52 C18        -4.2080    3.4550    2.7350 c         1 MOL      0.582297
     53 O9         -4.9750    4.0790    3.4410 o         1 MOL     -0.572345
     54 H23        -4.4390    5.7300    0.6080 hn        1 MOL      0.330835
     55 H24        -2.9700    4.0800    1.1630 h1        1 MOL      0.017442
     56 H25        -4.1010    2.8230    0.6480 h1        1 MOL      0.017442
     57 N5         -3.3720    2.6330    3.3350 n         1 MOL     -0.593668
     58 C19        -2.1870    1.8590    2.8810 c3        1 MOL      0.293725
     59 C20        -2.2780    1.1080    1.5680 c         1 MOL      0.008611
     60 O10        -3.3290    0.5700    1.2290 o         1 MOL     -0.441707
     61 C21        -1.8480    0.8000    3.9180 c3        1 MOL     -0.365907
     62 C22        -3.0940   -0.0870    4.2420 c         1 MOL      0.697970
     63 O11        -3.7590    0.1660    5.2970 o         1 MOL     -0.671243
     64 O12        -3.3530   -1.0700    3.4980 o         1 MOL     -0.671243
     65 H26        -3.7800    2.3440    4.2070 hn        1 MOL      0.349807
     66 H27        -1.2960    2.4900    2.7880 h1        1 MOL     -0.016450
     67 H28        -1.5460    1.3870    4.7900 hc        1 MOL      0.102453
     68 H29        -0.9690    0.1960    3.6850 hc        1 MOL      0.102453
     69 N6         -1.2330    0.9300    0.7750 n         1 MOL      0.046663
     70 C23         0.1670    1.3100    1.0030 c3        1 MOL     -0.106631
     71 C24         0.5010    2.6380    0.3070 c         1 MOL      0.457006
     72 O13        -0.1770    3.0350   -0.6440 o         1 MOL     -0.453344
     73 H30        -1.5520    0.3970   -0.0290 hn        1 MOL      0.087155
     74 H31         0.7660    0.4990    0.5760 h1        1 MOL      0.094399
     75 H32         0.4340    1.3620    2.0590 h1        1 MOL      0.094399
     76 N7          1.5750    3.2970    0.6990 n         1 MOL     -0.469181
     77 C25         1.9300    4.5430    0.0830 c3        1 MOL      0.014063
     78 C26         2.1410    4.4630   -1.4280 c         1 MOL      0.300347
     79 O14         1.9820    5.4680   -2.1420 o         1 MOL     -0.491921
     80 C27         3.2190    5.1860    0.6890 c3        1 MOL      0.198936
     81 C28         2.9050    5.8030    2.0840 c3        1 MOL     -0.265089
     82 C29         4.0130    6.6660    2.6810 c         1 MOL      0.725772
     83 N8          3.8870    7.2260    3.9000 n         1 MOL     -0.858190
     84 O15         5.0890    6.8450    2.1030 o         1 MOL     -0.570386
     85 H33         2.1930    2.9700    1.4240 hn        1 MOL      0.299750
     86 H34         1.1330    5.2550    0.2940 h1        1 MOL      0.122241
     87 H35         3.4670    6.0730    0.1030 hc        1 MOL     -0.008863
     88 H36         4.0560    4.4790    0.6520 hc        1 MOL     -0.008863
     89 H37         2.8140    4.9850    2.8000 hc        1 MOL      0.058700
     90 H38         1.9530    6.3380    2.0700 hc        1 MOL      0.058700
     91 H39         3.0080    7.1740    4.3860 hn        1 MOL      0.373718
     92 H40         4.6420    7.7780    4.2660 hn        1 MOL      0.373718
     93 N9          2.5900    3.3040   -1.9420 n         1 MOL     -0.180266
     94 C30         3.0400    3.1330   -3.3040 c3        1 MOL     -0.089709
     95 C31         4.4500    2.5150   -3.4500 c         1 MOL      0.441239
     96 O16         5.0350    2.6680   -4.5540 o         1 MOL     -0.546282
     97 C32         2.1480    2.2640   -4.1610 c3        1 MOL      0.186034
     98 C33         0.9150    3.0230   -4.4760 c3        1 MOL     -0.346605
     99 C34         1.5700    0.9460   -3.4220 c3        1 MOL     -0.346605
    100 H41         2.6680    2.5020   -1.3300 hn        1 MOL      0.272402
    101 H42         3.2260    4.0460   -3.8710 h1        1 MOL      0.125890
    102 H43         2.6000    2.0500   -5.1240 hc        1 MOL      0.043838
    103 H44         1.1370    3.7110   -5.2870 hc        1 MOL      0.085541
    104 H45         0.2400    2.3120   -4.9490 hc        1 MOL      0.085541
    105 H46         0.5780    3.4850   -3.5520 hc        1 MOL      0.085541
    106 H47         2.4090    0.2970   -3.1290 hc        1 MOL      0.085541
    107 H48         1.1680    1.3790   -2.5080 hc        1 MOL      0.085541
    108 H49         0.8390    0.4160   -4.0330 hc        1 MOL      0.085541
    109 N10         4.9890    1.8010   -2.4320 n         1 MOL     -0.288544
    110 C35         6.3270    1.2550   -2.3770 c3        1 MOL      0.103906
    111 C36         6.4780   -0.1640   -1.8590 c         1 MOL      0.507470
    112 O17         7.0760   -1.0300   -2.5060 o         1 MOL     -0.561698
    113 C37         7.2620    2.2190   -1.6890 c3        1 MOL     -0.259335
    114 C38         7.0090    2.5250   -0.2110 c         1 MOL      0.598084
    115 N11         8.0450    3.0830    0.4060 n         1 MOL     -0.784366
    116 O18         6.0450    2.2410    0.4110 o         1 MOL     -0.469032
    117 H50         4.4310    1.8420   -1.5940 hn        1 MOL      0.116108
    118 H51         6.6990    1.2850   -3.4020 h1        1 MOL      0.080018
    119 H52         7.3440    3.1730   -2.2140 hc        1 MOL      0.094604
    120 H53         8.2780    1.8170   -1.7470 hc        1 MOL      0.094604
    121 H54         8.8920    3.2840   -0.0970 hn        1 MOL      0.366752
    122 H55         8.0600    3.1280    1.4140 hn        1 MOL      0.366752
    123 N12         5.9600   -0.4870   -0.6580 n         1 MOL     -0.416850
    124 C39         6.0570   -1.8210    0.0100 c3        1 MOL      0.279008
    125 C40         4.6960   -2.5050    0.3520 c         1 MOL      0.280405
    126 O19         3.5960   -1.8730    0.4780 o         1 MOL     -0.456176
    127 C41         6.8410   -1.6550    1.3800 c3        1 MOL     -0.232862
    128 C42         8.2700   -1.0640    1.1550 ca        1 MOL     -0.001550
    129 C43         8.7030    0.0240    1.8910 ca        1 MOL     -0.083525
    130 C44         9.1720   -1.7020    0.2660 ca        1 MOL     -0.083525
    131 C45         9.9850    0.5270    1.6910 ca        1 MOL     -0.310562
    132 C46        10.5300   -1.3750    0.1830 ca        1 MOL     -0.310562
    133 C47        10.9120   -0.1980    0.8140 ca        1 MOL      0.364958
    134 O20        12.1260    0.3260    0.6540 oh        1 MOL     -0.532157
    135 H56         5.7630    0.3130   -0.0810 hn        1 MOL      0.219933
    136 H57         6.6410   -2.5090   -0.6030 h1        1 MOL      0.005605
    137 H58         6.9480   -2.6210    1.8660 hc        1 MOL      0.145171
    138 H59         6.3250   -1.0400    2.1160 hc        1 MOL      0.145171
    139 H60         8.0430    0.5280    2.5800 ha        1 MOL      0.117793
    140 H61         8.8190   -2.5560   -0.2980 ha        1 MOL      0.117793
    141 H62        10.2740    1.4470    2.1600 ha        1 MOL      0.146971
    142 H63        11.1310   -1.9010   -0.5370 ha        1 MOL      0.146971
    143 H64        12.6600   -0.1350    0.0010 ho        1 MOL      0.388605
    144 N13         4.8640   -3.8040    0.5340 n         1 MOL     -0.378870
    145 C48         3.9490   -4.8470    0.8940 c3        1 MOL     -0.161807
    146 C49         2.7530   -5.0120    0.0030 c         1 MOL      0.401424
    147 O21         2.1650   -6.1380   -0.0350 o         1 MOL     -0.530285
    148 C50         3.6780   -4.6800    2.3880 c3        1 MOL      0.177441
    149 C51         4.8090   -4.4070    3.3850 c3        1 MOL     -0.309374
    150 C52         4.2410   -4.4730    4.8260 c         1 MOL      0.736632
    151 O22         3.2060   -3.8490    5.0610 o         1 MOL     -0.726688
    152 O23         4.9550   -4.9960    5.6680 o         1 MOL     -0.726688
    153 H65         5.7600   -4.1360    0.2100 hn        1 MOL      0.289568
    154 H66         4.4580   -5.7990    0.7740 h1        1 MOL      0.088109
    155 H67         3.0360   -5.4770    2.7550 hc        1 MOL      0.045145
    156 H68         3.0240   -3.8150    2.4520 hc        1 MOL      0.045145
    157 H69         5.1510   -3.3860    3.2310 hc        1 MOL      0.014573
    158 H70         5.6560   -5.0630    3.1920 hc        1 MOL      0.014573
    159 N14         2.3030   -4.0220   -0.8090 n         1 MOL     -0.007321
    160 C53         1.1120   -4.1530   -1.7130 c3        1 MOL     -0.423751
    161 C54         1.5100   -4.9640   -2.9610 c         1 MOL      0.589662
    162 O24         0.6110   -5.5780   -3.5670 o         1 MOL     -0.543658
    163 C55         0.3490   -2.8440   -2.0810 c3        1 MOL     -0.016960
    164 C56         0.1070   -1.8680   -0.9120 c3        1 MOL      0.419144
    165 C57        -0.8820   -2.4130    0.1130 c         1 MOL      0.682535
    166 O25        -2.0820   -2.0880    0.1500 o         1 MOL     -0.705179
    167 O26        -0.3910   -3.0990    1.0680 o         1 MOL     -0.705179
    168 H71         2.7160   -3.1160   -0.6830 hn        1 MOL      0.144421
    169 H72         0.3890   -4.7440   -1.1460 h1        1 MOL      0.219658
    170 H73        -0.6000   -3.0240   -2.6060 hc        1 MOL      0.012662
    171 H74         0.9500   -2.2710   -2.7760 hc        1 MOL      0.012662
    172 H75        -0.1600   -0.9050   -1.3500 hc        1 MOL     -0.143066
    173 H76         1.0300   -1.7060   -0.3610 hc        1 MOL     -0.143066
    174 N15         2.7620   -4.8800   -3.3790 n         1 MOL     -0.307217
    175 C58         3.4040   -5.8280   -4.3070 c3        1 MOL     -0.205071
    176 H77         4.4240   -5.5000   -4.5110 h1        1 MOL      0.093779
    177 H78         3.4240   -6.8200   -3.8570 h1        1 MOL      0.093779
    178 H79         2.8410   -5.8620   -5.2390 h1        1 MOL      0.093779
    179 H80         3.4440   -4.4530   -2.7690 hn        1 MOL      0.221763
    180 Ca1        -4.4500   -2.0360    1.2460 Ca        1 MOL      1.728110
    181 O27        -2.7930   -4.0900    1.9580 oh        1 MOL     -0.828567
    182 H81        -2.6890   -4.1010    2.9080 ho        1 MOL      0.388625
    183 H82        -1.9860   -3.6780    1.6390 ho        1 MOL      0.388625
    184 O28        -6.4710   -0.5100    2.7460 oh        1 MOL     -0.828567
    185 H83        -7.0750    0.1270    2.3730 ho        1 MOL      0.388625
    186 H84        -6.8460   -0.7320    3.5960 ho        1 MOL      0.388625
    187 O29        -5.0500   -3.1830    3.4970 oh        1 MOL     -0.828567
    188 H85        -5.2700   -4.0220    3.9020 ho        1 MOL      0.388625
    189 H86        -4.4300   -2.7780    4.1140 ho        1 MOL      0.388625
@<TRIPOS>BOND
     1    1    2 1   
     2    1    4 1   
     3    1    5 1   
     4    1    6 1   
     5    2    3 2   
     6    2    7 1   
     7    7    8 1   
     8    7   15 1   
     9    8    9 1   
    10    8   11 1   
    11    8   16 1   
    12    9   10 2   
    13    9   19 1   
    14   11   12 1   
    15   11   17 1   
    16   11   18 1   
    17   12   13 1   
    18   12   14 1   
    19   19   20 1   
    20   19   27 1   
    21   20   21 1   
    22   20   23 1   
    23   20   28 1   
    24   21   22 2   
    25   21   38 1   
    26   23   24 1   
    27   23   25 1   
    28   23   29 1   
    29   24   26 1   
    30   24   30 1   
    31   24   31 1   
    32   25   32 1   
    33   25   33 1   
    34   25   34 1   
    35   26   35 1   
    36   26   36 1   
    37   26   37 1   
    38   38   39 1   
    39   38   46 1   
    40   39   40 1   
    41   39   42 1   
    42   39   47 1   
    43   40   41 2   
    44   40   50 1   
    45   42   43 1   
    46   42   48 1   
    47   42   49 1   
    48   43   44 1   
    49   43   45 1   
    50   50   51 1   
    51   50   54 1   
    52   51   52 1   
    53   51   55 1   
    54   51   56 1   
    55   52   53 2   
    56   52   57 1   
    57   57   58 1   
    58   57   65 1   
    59   58   59 1   
    60   58   61 1   
    61   58   66 1   
    62   59   60 2   
    63   59   69 1   
    64   61   62 1   
    65   61   67 1   
    66   61   68 1   
    67   62   63 1   
    68   62   64 1   
    69   69   70 1   
    70   69   73 1   
    71   70   71 1   
    72   70   74 1   
    73   70   75 1   
    74   71   72 2   
    75   71   76 1   
    76   76   77 1   
    77   76   85 1   
    78   77   78 1   
    79   77   80 1   
    80   77   86 1   
    81   78   79 2   
    82   78   93 1   
    83   80   81 1   
    84   80   87 1   
    85   80   88 1   
    86   81   82 1   
    87   81   89 1   
    88   81   90 1   
    89   82   83 1   
    90   82   84 2   
    91   83   91 1   
    92   83   92 1   
    93   93   94 1   
    94   93  100 1   
    95   94   95 1   
    96   94   97 1   
    97   94  101 1   
    98   95   96 2   
    99   95  109 1   
   100   97   98 1   
   101   97   99 1   
   102   97  102 1   
   103   98  103 1   
   104   98  104 1   
   105   98  105 1   
   106   99  106 1   
   107   99  107 1   
   108   99  108 1   
   109  109  110 1   
   110  109  117 1   
   111  110  111 1   
   112  110  113 1   
   113  110  118 1   
   114  111  112 2   
   115  111  123 1   
   116  113  114 1   
   117  113  119 1   
   118  113  120 1   
   119  114  115 1   
   120  114  116 2   
   121  115  121 1   
   122  115  122 1   
   123  123  124 1   
   124  123  135 1   
   125  124  125 1   
   126  124  127 1   
   127  124  136 1   
   128  125  126 2   
   129  125  144 1   
   130  127  128 1   
   131  127  137 1   
   132  127  138 1   
   133  128  129 ar  
   134  128  130 ar  
   135  129  131 ar  
   136  129  139 1   
   137  130  132 ar  
   138  130  140 1   
   139  131  133 ar  
   140  131  141 1   
   141  132  133 ar  
   142  132  142 1   
   143  133  134 1   
   144  134  143 1   
   145  144  145 1   
   146  144  153 1   
   147  145  146 1   
   148  145  148 1   
   149  145  154 1   
   150  146  147 2   
   151  146  159 1   
   152  148  149 1   
   153  148  155 1   
   154  148  156 1   
   155  149  150 1   
   156  149  157 1   
   157  149  158 1   
   158  150  151 1   
   159  150  152 1   
   160  159  160 1   
   161  159  168 1   
   162  160  161 1   
   163  160  163 1   
   164  160  169 1   
   165  161  162 2   
   166  161  174 1   
   167  163  164 1   
   168  163  170 1   
   169  163  171 1   
   170  164  165 1   
   171  164  172 1   
   172  164  173 1   
   173  165  166 1   
   174  165  167 1   
   175  174  175 1   
   176  174  179 1   
   177  175  176 1   
   178  175  177 1   
   179  175  178 1   
   180  181  182 1   
   181  181  183 1   
   182  184  185 1   
   183  184  186 1   
   184  187  188 1   
   185  187  189 1   
@<TRIPOS>SUBSTRUCTURE
     1 MOL         1 TEMP              0 ****  ****    0 ROOT
