@<TRIPOS>MOLECULE
MOL
  198   191     1     0     0
SMALL
resp


@<TRIPOS>ATOM
      1 C1         -3.9590    5.7100    2.9290 c3        1 MOL     -0.319939
      2 C2         -5.4880    5.6990    2.6300 c         1 MOL      0.644392
      3 O1         -5.9120    6.6960    2.0020 o         1 MOL     -0.551387
      4 H1         -3.7890    6.0940    3.9360 hc        1 MOL      0.078547
      5 H2         -3.5660    4.6960    2.8570 hc        1 MOL      0.078547
      6 H3         -3.4510    6.3490    2.2070 hc        1 MOL      0.078547
      7 N1         -6.2220    4.6760    3.0700 n         1 MOL     -0.598483
      8 C3         -7.5590    4.2880    2.6590 c3        1 MOL      0.214508
      9 C4         -7.6080    3.7170    1.2520 c         1 MOL      0.572118
     10 O2         -6.6740    3.7530    0.4760 o         1 MOL     -0.552509
     11 C5         -8.5060    5.5440    2.9220 c3        1 MOL     -0.286350
     12 C6         -9.9760    5.3470    2.7720 c         1 MOL      0.704900
     13 O3        -10.4410    4.1680    2.7200 o         1 MOL     -0.710222
     14 O4        -10.7330    6.2950    2.5620 o         1 MOL     -0.710222
     15 H4         -5.6570    3.9840    3.5570 hn        1 MOL      0.317355
     16 H5         -7.8990    3.4780    3.3020 h1        1 MOL      0.020287
     17 H6         -8.2030    6.4350    2.3700 hc        1 MOL      0.093400
     18 H7         -8.4610    5.8480    3.9650 hc        1 MOL      0.093400
     19 N2         -8.6820    3.0240    0.8960 n         1 MOL     -0.438244
     20 C7         -8.9830    2.5420   -0.4750 c3        1 MOL      0.085385
     21 C8         -8.1200    1.4250   -1.0410 c         1 MOL      0.316801
     22 O5         -8.3080    1.0000   -2.1940 o         1 MOL     -0.520442
     23 C9         -9.1460    3.7270   -1.4360 c3        1 MOL     -0.390642
     24 C10       -10.3370    4.6500   -1.2040 c3        1 MOL     -0.070590
     25 C11       -10.2130    5.7290   -2.2720 c3        1 MOL      0.067447
     26 C12       -11.4120    6.5810   -2.6370 c3        1 MOL     -0.349424
     27 N3        -12.5630    5.8230   -3.1640 n4        1 MOL     -0.273797
     28 H8         -9.4100    3.0490    1.5950 hn        1 MOL      0.215012
     29 H9         -9.9520    2.0730   -0.3200 h1        1 MOL      0.096942
     30 H10        -9.1590    3.3040   -2.4410 hc        1 MOL      0.158686
     31 H11        -8.2250    4.2990   -1.3460 hc        1 MOL      0.158686
     32 H12       -10.2500    5.0390   -0.1940 hc        1 MOL      0.098183
     33 H13       -11.2710    4.0840   -1.1160 hc        1 MOL      0.098183
     34 H14        -9.9130    5.2380   -3.1990 hc        1 MOL      0.045522
     35 H15        -9.2870    6.2800   -2.0660 hc        1 MOL      0.045522
     36 H16       -11.0240    7.2310   -3.4260 hx        1 MOL      0.205799
     37 H17       -11.7160    7.1330   -1.7540 hx        1 MOL      0.205799
     38 H18       -12.3750    5.2760   -3.9880 hn        1 MOL      0.309937
     39 H19       -12.8870    5.1660   -2.4730 hn        1 MOL      0.309937
     40 H20       -13.2450    6.3790   -3.6660 hn        1 MOL      0.309937
     41 N4         -7.1710    0.9450   -0.2750 n         1 MOL     -0.266257
     42 C13        -6.3250   -0.1730   -0.6690 c3        1 MOL      0.482336
     43 C14        -5.9090   -1.0370    0.5310 c         1 MOL      0.196541
     44 O6         -5.2460   -0.5230    1.4200 o         1 MOL     -0.501948
     45 C15        -5.1170    0.3470   -1.3680 c3        1 MOL     -0.490626
     46 C16        -4.1950   -0.7360   -1.9080 c         1 MOL      0.971472
     47 O7         -4.4560   -1.9760   -2.0630 o         1 MOL     -0.786624
     48 O8         -3.0470   -0.4320   -2.2240 o         1 MOL     -0.786624
     49 H21        -7.1800    1.2340    0.6940 hn        1 MOL      0.199679
     50 H22        -6.8890   -0.7010   -1.4330 h1        1 MOL     -0.046689
     51 H23        -4.5070    0.9280   -0.6860 hc        1 MOL      0.125998
     52 H24        -5.4950    0.8770   -2.2400 hc        1 MOL      0.125998
     53 N5         -6.2190   -2.3100    0.6810 n         1 MOL     -0.098715
     54 C17        -7.0480   -3.1790   -0.1810 c3        1 MOL     -0.519099
     55 C18        -6.4190   -4.5650   -0.5150 c         1 MOL      0.634822
     56 O9         -7.1680   -5.5660   -0.4340 o         1 MOL     -0.559302
     57 H25        -5.8840   -2.7040    1.5520 hn        1 MOL      0.223482
     58 H26        -7.2200   -2.7950   -1.1830 h1        1 MOL      0.197137
     59 H27        -7.9550   -3.3070    0.4190 h1        1 MOL      0.197137
     60 N6         -5.1370   -4.5970   -0.8740 n         1 MOL     -0.019100
     61 C19        -4.2780   -5.8140   -0.8350 c3        1 MOL     -0.448629
     62 C20        -2.8030   -5.4310   -0.6210 c         1 MOL      0.545324
     63 O10        -2.3750   -4.3830   -1.0120 o         1 MOL     -0.462585
     64 C21        -4.4370   -6.5400   -2.1830 c3        1 MOL      0.197760
     65 C22        -4.7340   -5.5490   -3.3400 c         1 MOL      0.450090
     66 O11        -3.9270   -4.6040   -3.5540 o         1 MOL     -0.614135
     67 O12        -5.7670   -5.7870   -4.0210 o         1 MOL     -0.614135
     68 H28        -4.6630   -3.7050   -0.8450 hn        1 MOL      0.105636
     69 H29        -4.6220   -6.4900   -0.0530 h1        1 MOL      0.108572
     70 H30        -5.2530   -7.2550   -2.0650 hc        1 MOL     -0.031485
     71 H31        -3.5210   -7.0850   -2.4010 hc        1 MOL     -0.031485
     72 N7         -2.0770   -6.4110   -0.0460 n         1 MOL     -0.316776
     73 C23        -0.6290   -6.2770    0.3110 c3        1 MOL     -0.190726
     74 C24        -0.2570   -5.5460    1.5850 c         1 MOL      0.621753
     75 O13         0.7900   -5.7930    2.1740 o         1 MOL     -0.553280
     76 H32        -2.5430   -7.2270    0.3360 hn        1 MOL      0.292332
     77 H33        -0.1510   -5.7560   -0.5140 h1        1 MOL      0.095600
     78 H34        -0.2320   -7.2920    0.3520 h1        1 MOL      0.095600
     79 N8         -1.1270   -4.6060    2.0600 n         1 MOL     -0.464679
     80 C25        -0.7420   -3.7150    3.1780 c3        1 MOL     -0.362791
     81 C26        -0.3680   -2.4350    2.4990 c         1 MOL      0.768864
     82 O14        -0.9260   -2.0460    1.4580 o         1 MOL     -0.509937
     83 C27        -1.9040   -3.7750    4.2410 c3        1 MOL      0.455471
     84 C28        -3.1610   -3.1100    3.6280 c3        1 MOL     -0.170962
     85 O15        -2.1420   -5.0520    4.6950 oh        1 MOL     -0.628977
     86 H35        -2.0490   -4.5240    1.6620 hn        1 MOL      0.282654
     87 H36         0.1560   -4.1560    3.6150 h1        1 MOL      0.160826
     88 H37        -1.5340   -3.2360    5.1180 h1        1 MOL     -0.036832
     89 H38        -1.3480   -5.5510    4.8770 ho        1 MOL      0.425991
     90 H39        -2.9060   -2.3230    2.9220 hc        1 MOL      0.054332
     91 H40        -3.7810   -3.8180    3.0710 hc        1 MOL      0.054332
     92 H41        -3.7840   -2.5960    4.3660 hc        1 MOL      0.054332
     93 N9          0.6440   -1.7800    3.0850 n         1 MOL     -0.585680
     94 C29         1.1350   -0.4890    2.5570 c3        1 MOL     -0.049288
     95 C30         2.3930   -0.5770    1.7500 c         1 MOL      0.377739
     96 O16         2.5630    0.3440    0.9270 o         1 MOL     -0.523902
     97 C31         1.2030    0.6130    3.7260 c3        1 MOL      0.304767
     98 C32         2.3660    0.6730    4.7040 c3        1 MOL      0.201582
     99 C33        -0.1320    0.7050    4.5160 c3        1 MOL     -0.401418
    100 C34         2.6660    2.0200    5.3530 c3        1 MOL     -0.238603
    101 H42         0.8820   -1.8770    4.0680 hn        1 MOL      0.310190
    102 H43         0.4520   -0.0640    1.8230 h1        1 MOL      0.094671
    103 H44         1.2820    1.5650    3.1990 hc        1 MOL     -0.019556
    104 H45         3.2780    0.3210    4.2050 hc        1 MOL     -0.078737
    105 H46         2.1320   -0.0550    5.4780 hc        1 MOL     -0.078737
    106 H47        -0.1690    1.6670    5.0250 hc        1 MOL      0.094307
    107 H48        -0.9460    0.5360    3.8140 hc        1 MOL      0.094307
    108 H49        -0.1860   -0.0540    5.3020 hc        1 MOL      0.094307
    109 H50         2.7430    2.7900    4.5930 hc        1 MOL      0.065170
    110 H51         1.8530    2.2440    6.0420 hc        1 MOL      0.065170
    111 H52         3.5940    1.9930    5.9200 hc        1 MOL      0.065170
    112 N10         3.3110   -1.5280    1.9450 n         1 MOL     -0.148575
    113 C35         4.3750   -1.7020    0.9730 c3        1 MOL     -0.089706
    114 C36         5.6750   -2.0250    1.7360 c         1 MOL      0.547622
    115 O17         5.6920   -2.7590    2.7340 o         1 MOL     -0.516748
    116 C37         4.1030   -2.6300   -0.1590 c3        1 MOL      0.479319
    117 C38         3.4650   -3.9570    0.2680 c3        1 MOL     -0.496541
    118 O18         3.2350   -2.0110   -1.1800 oh        1 MOL     -0.627012
    119 H53         3.1510   -2.1380    2.7290 hn        1 MOL      0.187625
    120 H54         4.5820   -0.7450    0.4900 h1        1 MOL      0.052138
    121 H55         5.0670   -2.8780   -0.6160 h1        1 MOL     -0.004366
    122 H56         2.4420   -1.7230   -0.7130 ho        1 MOL      0.348925
    123 H57         3.5460   -4.6760   -0.5440 hc        1 MOL      0.129663
    124 H58         4.0550   -4.3110    1.1180 hc        1 MOL      0.129663
    125 H59         2.4420   -3.7110    0.5470 hc        1 MOL      0.129663
    126 N11         6.8110   -1.5590    1.1520 n         1 MOL     -0.509030
    127 C39         8.0870   -1.5340    1.9700 c3        1 MOL     -0.159812
    128 C40         9.0720   -0.4040    1.6870 c         1 MOL      0.688617
    129 O19         9.7030    0.0720    2.5910 o         1 MOL     -0.537095
    130 C41         8.7570   -2.9600    2.0440 c3        1 MOL      0.288878
    131 C42         9.8370   -3.0710    3.0880 c3        1 MOL     -0.186243
    132 O20         9.4130   -3.1430    0.8310 oh        1 MOL     -0.603813
    133 H60         6.7750   -1.1550    0.2230 hn        1 MOL      0.302043
    134 H61         7.8220   -1.2900    3.0010 h1        1 MOL      0.148225
    135 H62         7.9750   -3.7230    2.1370 h1        1 MOL      0.059734
    136 H63         8.7700   -2.9580    0.1360 ho        1 MOL      0.355366
    137 H64         9.8080   -4.0240    3.6070 hc        1 MOL      0.059572
    138 H65        10.8490   -2.8980    2.7240 hc        1 MOL      0.059572
    139 H66         9.6330   -2.2950    3.8220 hc        1 MOL      0.059572
    140 N12         9.0760    0.1120    0.4400 n         1 MOL     -0.545310
    141 C43         9.7760    1.3730    0.0120 c3        1 MOL     -0.016889
    142 C44         8.9990    2.1140   -1.0830 c         1 MOL      0.547008
    143 O21         8.6450    1.4250   -2.0490 o         1 MOL     -0.549851
    144 C45        11.1900    0.9790   -0.4430 c3        1 MOL     -0.236844
    145 C46        11.8870    2.1790   -1.0530 c3        1 MOL     -0.004079
    146 C47        13.3410    1.8350   -1.2620 c3        1 MOL      0.068779
    147 C48        13.5790    0.6980   -2.2340 c3        1 MOL      0.139275
    148 N13        14.9240    0.1070   -2.0770 n4        1 MOL     -0.448448
    149 H67         8.5110   -0.2880   -0.2850 hn        1 MOL      0.306703
    150 H68         9.8160    2.0920    0.8290 h1        1 MOL      0.091969
    151 H69        11.1290    0.1610   -1.1660 hc        1 MOL      0.104814
    152 H70        11.7660    0.5300    0.3650 hc        1 MOL      0.104814
    153 H71        11.7920    3.0280   -0.3750 hc        1 MOL      0.035544
    154 H72        11.4410    2.4220   -2.0110 hc        1 MOL      0.035544
    155 H73        13.7720    1.5670   -0.2970 hc        1 MOL      0.000563
    156 H74        13.8930    2.6550   -1.7150 hc        1 MOL      0.000563
    157 H75        13.3560    1.0200   -3.2480 hx        1 MOL      0.058140
    158 H76        12.8220   -0.0760   -2.1040 hx        1 MOL      0.058140
    159 H77        15.1760   -0.1950   -1.1430 hn        1 MOL      0.302343
    160 H78        14.9810   -0.7220   -2.6550 hn        1 MOL      0.302343
    161 H79        15.6270    0.7880   -2.3180 hn        1 MOL      0.302343
    162 N14         8.6750    3.3490   -0.9830 n         1 MOL     -0.481970
    163 C49         7.8700    4.0980   -1.9860 c3        1 MOL      0.268391
    164 C50         6.4580    3.6740   -2.0180 c         1 MOL      0.364686
    165 O22         5.9670    3.2570   -3.0820 o         1 MOL     -0.537050
    166 C51         8.0920    5.5990   -1.6290 c3        1 MOL      0.029661
    167 C52         9.3920    6.0230   -2.4100 c3        1 MOL     -0.232281
    168 C53         9.7330    7.4930   -2.1320 c         1 MOL      0.730412
    169 O23         9.4250    8.4120   -2.9150 o         1 MOL     -0.675073
    170 O24        10.3680    7.6690   -1.0860 o         1 MOL     -0.675073
    171 H80         8.9700    3.8740   -0.1710 hn        1 MOL      0.313326
    172 H81         8.2810    3.8630   -2.9690 h1        1 MOL      0.049607
    173 H82         8.3090    5.7770   -0.5820 hc        1 MOL      0.016874
    174 H83         7.2020    6.1770   -1.8990 hc        1 MOL      0.016874
    175 H84         9.3480    5.7570   -3.4700 hc        1 MOL      0.017275
    176 H85        10.1900    5.4810   -1.9030 hc        1 MOL      0.017275
    177 N15         5.7260    3.6940   -0.9320 n         1 MOL     -0.316884
    178 C54         5.8890    4.4220    0.3920 c3        1 MOL     -0.097020
    179 H86         5.8540    5.4980    0.2200 h1        1 MOL      0.071118
    180 H87         5.0820    4.1360    1.0660 h1        1 MOL      0.071118
    181 H88         6.8480    4.1570    0.8370 h1        1 MOL      0.071118
    182 H89         4.8620    3.2060   -1.0990 hn        1 MOL      0.278571
    183 Ca1        -2.1850   -2.7140   -3.1250 Ca        1 MOL      1.595863
    184 O25        -0.3610   -2.2750   -1.2160 oh        1 MOL     -0.769164
    185 H90        -0.6780   -2.1270   -0.3260 ho        1 MOL      0.388962
    186 H91         0.4480   -1.7700   -1.2740 ho        1 MOL      0.388962
    187 O26        -1.2820   -2.8680   -5.6970 oh        1 MOL     -0.769164
    188 H92        -0.4110   -3.1250   -6.0170 ho        1 MOL      0.388962
    189 H93        -1.7680   -2.6250   -6.4910 ho        1 MOL      0.388962
    190 O27        -3.8350   -1.6130   -4.9910 oh        1 MOL     -0.769164
    191 H94        -4.0510   -2.3780   -5.5360 ho        1 MOL      0.388962
    192 H95        -3.6200   -0.9280   -5.6230 ho        1 MOL      0.388962
    193 O28        -0.4370   -4.5790   -3.2920 oh        1 MOL     -0.769164
    194 H96         0.4650   -4.7170   -3.0040 ho        1 MOL      0.388962
    195 H97        -0.7620   -5.4520   -3.4840 ho        1 MOL      0.388962
    196 O29        -0.6050   -0.7990   -3.9450 oh        1 MOL     -0.769164
    197 H98         0.0670   -0.6690   -3.2680 ho        1 MOL      0.388962
    198 H99        -0.2380   -0.4020   -4.7320 ho        1 MOL      0.388962
@<TRIPOS>BOND
     1    1    2 1   
     2    1    4 1   
     3    1    5 1   
     4    1    6 1   
     5    2    3 2   
     6    2    7 1   
     7    7    8 1   
     8    7   15 1   
     9    8    9 1   
    10    8   11 1   
    11    8   16 1   
    12    9   10 2   
    13    9   19 1   
    14   11   12 1   
    15   11   17 1   
    16   11   18 1   
    17   12   13 1   
    18   12   14 1   
    19   19   20 1   
    20   19   28 1   
    21   20   21 1   
    22   20   23 1   
    23   20   29 1   
    24   21   22 2   
    25   21   41 1   
    26   23   24 1   
    27   23   30 1   
    28   23   31 1   
    29   24   25 1   
    30   24   32 1   
    31   24   33 1   
    32   25   26 1   
    33   25   34 1   
    34   25   35 1   
    35   26   27 1   
    36   26   36 1   
    37   26   37 1   
    38   27   38 1   
    39   27   39 1   
    40   27   40 1   
    41   41   42 1   
    42   41   49 1   
    43   42   43 1   
    44   42   45 1   
    45   42   50 1   
    46   43   44 2   
    47   43   53 1   
    48   45   46 1   
    49   45   51 1   
    50   45   52 1   
    51   46   47 1   
    52   46   48 1   
    53   53   54 1   
    54   53   57 1   
    55   54   55 1   
    56   54   58 1   
    57   54   59 1   
    58   55   56 2   
    59   55   60 1   
    60   60   61 1   
    61   60   68 1   
    62   61   62 1   
    63   61   64 1   
    64   61   69 1   
    65   62   63 2   
    66   62   72 1   
    67   64   65 1   
    68   64   70 1   
    69   64   71 1   
    70   65   66 1   
    71   65   67 1   
    72   72   73 1   
    73   72   76 1   
    74   73   74 1   
    75   73   77 1   
    76   73   78 1   
    77   74   75 2   
    78   74   79 1   
    79   79   80 1   
    80   79   86 1   
    81   80   81 1   
    82   80   83 1   
    83   80   87 1   
    84   81   82 2   
    85   81   93 1   
    86   83   84 1   
    87   83   85 1   
    88   83   88 1   
    89   84   90 1   
    90   84   91 1   
    91   84   92 1   
    92   85   89 1   
    93   93   94 1   
    94   93  101 1   
    95   94   95 1   
    96   94   97 1   
    97   94  102 1   
    98   95   96 2   
    99   95  112 1   
   100   97   98 1   
   101   97   99 1   
   102   97  103 1   
   103   98  100 1   
   104   98  104 1   
   105   98  105 1   
   106   99  106 1   
   107   99  107 1   
   108   99  108 1   
   109  100  109 1   
   110  100  110 1   
   111  100  111 1   
   112  112  113 1   
   113  112  119 1   
   114  113  114 1   
   115  113  116 1   
   116  113  120 1   
   117  114  115 2   
   118  114  126 1   
   119  116  117 1   
   120  116  118 1   
   121  116  121 1   
   122  117  123 1   
   123  117  124 1   
   124  117  125 1   
   125  118  122 1   
   126  126  127 1   
   127  126  133 1   
   128  127  128 1   
   129  127  130 1   
   130  127  134 1   
   131  128  129 2   
   132  128  140 1   
   133  130  131 1   
   134  130  132 1   
   135  130  135 1   
   136  131  137 1   
   137  131  138 1   
   138  131  139 1   
   139  132  136 1   
   140  140  141 1   
   141  140  149 1   
   142  141  142 1   
   143  141  144 1   
   144  141  150 1   
   145  142  143 2   
   146  142  162 1   
   147  144  145 1   
   148  144  151 1   
   149  144  152 1   
   150  145  146 1   
   151  145  153 1   
   152  145  154 1   
   153  146  147 1   
   154  146  155 1   
   155  146  156 1   
   156  147  148 1   
   157  147  157 1   
   158  147  158 1   
   159  148  159 1   
   160  148  160 1   
   161  148  161 1   
   162  162  163 1   
   163  162  171 1   
   164  163  164 1   
   165  163  166 1   
   166  163  172 1   
   167  164  165 2   
   168  164  177 1   
   169  166  167 1   
   170  166  173 1   
   171  166  174 1   
   172  167  168 1   
   173  167  175 1   
   174  167  176 1   
   175  168  169 1   
   176  168  170 1   
   177  177  178 1   
   178  177  182 1   
   179  178  179 1   
   180  178  180 1   
   181  178  181 1   
   182  184  185 1   
   183  184  186 1   
   184  187  188 1   
   185  187  189 1   
   186  190  191 1   
   187  190  192 1   
   188  193  194 1   
   189  193  195 1   
   190  196  197 1   
   191  196  198 1   
@<TRIPOS>SUBSTRUCTURE
     1 MOL         1 TEMP              0 ****  ****    0 ROOT
