@<TRIPOS>MOLECULE
MOL
  192   187     1     0     0
SMALL
resp


@<TRIPOS>ATOM
      1 C1         11.4920    5.1050   -2.9480 c3        1 MOL     -0.263907
      2 C2         10.9760    3.7940   -2.2700 c         1 MOL      0.696718
      3 O1         11.2410    2.6790   -2.7600 o         1 MOL     -0.604077
      4 H1         10.8480    5.9380   -2.6640 hc        1 MOL      0.071343
      5 H2         12.5120    5.3070   -2.6200 hc        1 MOL      0.071343
      6 H3         11.4750    4.9860   -4.0310 hc        1 MOL      0.071343
      7 N1         10.4520    3.9250   -1.0270 n         1 MOL     -0.589115
      8 C3         10.2740    2.7280   -0.2190 c3        1 MOL      0.290121
      9 C4          9.0610    1.9240   -0.6810 c         1 MOL      0.210106
     10 O2          7.9850    2.5190   -0.7610 o         1 MOL     -0.357176
     11 C5         10.1900    3.0430    1.2530 c3        1 MOL     -0.042728
     12 C6          9.1580    4.0640    1.7380 c         1 MOL      0.668161
     13 O3          9.0460    4.2940    2.9810 o         1 MOL     -0.649847
     14 O4          8.5940    4.7510    0.8900 o         1 MOL     -0.649847
     15 H4         10.1800    4.8180   -0.6240 hn        1 MOL      0.208520
     16 H5         11.1900    2.1260   -0.1830 h1        1 MOL      0.018977
     17 H6         11.1950    3.3140    1.5810 hc        1 MOL      0.012718
     18 H7         10.0470    2.0910    1.7670 hc        1 MOL      0.012718
     19 N2          9.1930    0.5740   -0.8560 n         1 MOL     -0.360685
     20 C7          8.0430   -0.3040   -1.0720 c3        1 MOL     -0.102450
     21 C8          7.1260   -0.4060    0.1000 c         1 MOL      0.979183
     22 O5          7.5180   -0.9060    1.1340 o         1 MOL     -0.634737
     23 C9          8.5630   -1.6800   -1.5840 c3        1 MOL     -0.123213
     24 C10         7.4110   -2.4780   -2.1480 c3        1 MOL      0.027356
     25 C11         7.8890   -3.7670   -2.7630 c3        1 MOL      0.188748
     26 C12         6.8480   -4.7280   -3.3340 c3        1 MOL     -0.237163
     27 N3          5.6300   -4.8610   -2.4870 n4        1 MOL     -0.302936
     28 H8         10.0580    0.1570   -0.5300 hn        1 MOL      0.273770
     29 H9          7.4800    0.1160   -1.8960 h1        1 MOL      0.121591
     30 H10         9.0650   -2.1990   -0.7690 hc        1 MOL      0.056093
     31 H11         9.3710   -1.4840   -2.2950 hc        1 MOL      0.056093
     32 H12         6.9340   -1.8030   -2.8540 hc        1 MOL     -0.021423
     33 H13         6.6820   -2.6340   -1.3600 hc        1 MOL     -0.021423
     34 H14         8.3570   -4.2650   -1.9080 hc        1 MOL      0.009787
     35 H15         8.6790   -3.5620   -3.4840 hc        1 MOL      0.009787
     36 H16         7.2210   -5.7480   -3.4600 hx        1 MOL      0.127142
     37 H17         6.5800   -4.5210   -4.3640 hx        1 MOL      0.127142
     38 H18         5.0930   -5.5930   -2.9490 hn        1 MOL      0.302082
     39 H19         5.7650   -5.0450   -1.5030 hn        1 MOL      0.302082
     40 H20         5.0490   -4.0410   -2.5840 hn        1 MOL      0.302082
     41 N4          5.8780    0.0330   -0.0440 n         1 MOL     -0.839616
     42 C13         4.8030    0.0120    0.9470 c3        1 MOL      0.375924
     43 C14         3.4170   -0.1140    0.2210 c         1 MOL      0.419730
     44 O6          3.3030    0.2390   -0.9670 o         1 MOL     -0.511025
     45 C15         4.8750    1.2890    1.7520 c3        1 MOL      0.175243
     46 C16         5.2130    2.6300    1.0360 c         1 MOL      0.481409
     47 O7          4.9200    2.8350   -0.1470 o         1 MOL     -0.695034
     48 O8          5.7810    3.5330    1.6630 o         1 MOL     -0.695034
     49 H21         5.6020    0.4490   -0.9220 hn        1 MOL      0.300564
     50 H22         4.9670   -0.8710    1.5660 h1        1 MOL     -0.015048
     51 H23         5.6820    1.1710    2.4830 hc        1 MOL     -0.029838
     52 H24         3.9120    1.4240    2.2510 hc        1 MOL     -0.029838
     53 N5          2.3770   -0.7530    0.8710 n         1 MOL     -0.449188
     54 C17         2.4150   -1.2920    2.2350 c3        1 MOL     -0.080171
     55 C18         2.4540   -2.8010    2.4090 c         1 MOL      0.588050
     56 O9          2.6240   -3.5850    1.4860 o         1 MOL     -0.552396
     57 H25         1.6420   -1.1000    0.2620 hn        1 MOL      0.297612
     58 H26         1.4980   -0.9280    2.7000 h1        1 MOL      0.078854
     59 H27         3.2860   -0.8410    2.7040 h1        1 MOL      0.078854
     60 N6          2.3590   -3.1900    3.6680 n         1 MOL     -0.306784
     61 C19         2.4490   -4.5730    4.0300 c3        1 MOL     -0.182258
     62 C20         1.2330   -5.3460    3.5400 c         1 MOL      0.603965
     63 O10         0.0580   -4.9100    3.6010 o         1 MOL     -0.522528
     64 C21         2.5480   -4.6820    5.5580 c3        1 MOL     -0.103742
     65 C22         2.7400   -5.9820    6.1850 c         1 MOL      0.632924
     66 O11         2.4230   -6.1820    7.3820 o         1 MOL     -0.649003
     67 O12         3.1310   -6.9410    5.4160 o         1 MOL     -0.649003
     68 H28         2.1100   -2.4880    4.3460 hn        1 MOL      0.248042
     69 H29         3.3710   -5.0270    3.6490 h1        1 MOL      0.100378
     70 H30         1.7680   -4.1420    6.0970 hc        1 MOL      0.052956
     71 H31         3.3860   -4.0440    5.8560 hc        1 MOL      0.052956
     72 N7          1.4660   -6.4950    2.8580 n         1 MOL     -0.364160
     73 C23         0.3760   -7.1140    2.0600 c3        1 MOL      0.021074
     74 C24        -0.2340   -6.4330    0.8210 c         1 MOL      0.461086
     75 O13        -1.0760   -7.0300    0.1950 o         1 MOL     -0.567112
     76 H32         2.4160   -6.8340    2.8120 hn        1 MOL      0.251418
     77 H33        -0.4120   -7.4980    2.6980 h1        1 MOL      0.062708
     78 H34         0.8180   -8.0360    1.6890 h1        1 MOL      0.062708
     79 N8          0.3450   -5.2890    0.5100 n         1 MOL     -0.040056
     80 C25         0.3590   -4.4410   -0.6940 c3        1 MOL      0.066499
     81 C26        -0.1340   -3.0290   -0.4700 c         1 MOL      0.407671
     82 O14        -0.2070   -2.5220    0.6870 o         1 MOL     -0.498067
     83 C27         1.6070   -4.6260   -1.5050 c3        1 MOL      0.192166
     84 C28         1.9390   -6.0350   -1.9700 c3        1 MOL     -0.465495
     85 O15         1.3230   -3.7810   -2.6110 oh        1 MOL     -0.544586
     86 H35         0.8820   -4.8240    1.2270 hn        1 MOL     -0.036374
     87 H36        -0.4380   -4.8560   -1.3090 h1        1 MOL      0.009195
     88 H37         2.4000   -4.0770   -1.0060 h1        1 MOL     -0.015609
     89 H38         2.1100   -3.5430   -3.1000 ho        1 MOL      0.324268
     90 H39         2.1920   -6.7450   -1.1760 hc        1 MOL      0.126501
     91 H40         1.0680   -6.4120   -2.4980 hc        1 MOL      0.126501
     92 H41         2.7890   -6.0150   -2.6400 hc        1 MOL      0.126501
     93 N9         -0.6730   -2.4230   -1.5160 n         1 MOL      0.004811
     94 C29        -1.2920   -1.0630   -1.5750 c3        1 MOL     -0.154112
     95 C30        -2.8100   -1.0010   -1.4760 c         1 MOL      0.767048
     96 O16        -3.3750   -0.2410   -0.7400 o         1 MOL     -0.577305
     97 C31        -0.8060   -0.1990   -2.7740 c3        1 MOL      0.071691
     98 C32         0.7020   -0.4120   -3.1840 c3        1 MOL     -0.059985
     99 C33        -0.9280    1.2680   -2.3810 c3        1 MOL     -0.240130
    100 C34         0.8230   -1.1870   -4.4770 c3        1 MOL     -0.449132
    101 H42        -0.6870   -2.9620   -2.3770 hn        1 MOL      0.176217
    102 H43        -1.0390   -0.5600   -0.6400 h1        1 MOL      0.071540
    103 H44        -1.4470   -0.2710   -3.6530 hc        1 MOL      0.018504
    104 H45         1.1090   -0.9290   -2.3200 hc        1 MOL      0.085054
    105 H46         1.1530    0.5760   -3.3190 hc        1 MOL      0.085054
    106 H47        -1.8980    1.5510   -1.9790 hc        1 MOL      0.069667
    107 H48        -0.2370    1.4730   -1.5720 hc        1 MOL      0.069667
    108 H49        -0.6840    1.9550   -3.1980 hc        1 MOL      0.069667
    109 H50         0.3060   -2.1450   -4.3550 hc        1 MOL      0.109793
    110 H51         0.3180   -0.6250   -5.2580 hc        1 MOL      0.109793
    111 H52         1.8870   -1.2080   -4.7080 hc        1 MOL      0.109793
    112 N10        -3.4380   -1.9230   -2.0950 n         1 MOL     -0.694691
    113 C35        -4.8370   -2.2690   -1.7130 c3        1 MOL      0.014069
    114 C36        -5.8850   -1.6260   -2.7230 c         1 MOL      0.766108
    115 O17        -5.5980   -1.4460   -3.9160 o         1 MOL     -0.550390
    116 C37        -5.0510   -3.7720   -1.5990 c3        1 MOL      0.218442
    117 C38        -4.1120   -4.2450   -0.4310 c3        1 MOL     -0.371449
    118 O18        -6.3000   -4.1020   -1.2060 oh        1 MOL     -0.619588
    119 H53        -2.9500   -2.4340   -2.8310 hn        1 MOL      0.324685
    120 H54        -5.0440   -1.8260   -0.7380 h1        1 MOL      0.109205
    121 H55        -4.7330   -4.2420   -2.5340 h1        1 MOL      0.031467
    122 H56        -6.2310   -4.9810   -0.8130 ho        1 MOL      0.420357
    123 H57        -4.3800   -5.2740   -0.1860 hc        1 MOL      0.118787
    124 H58        -3.0710   -4.0830   -0.7100 hc        1 MOL      0.118787
    125 H59        -4.3180   -3.7270    0.5140 hc        1 MOL      0.118787
    126 N11        -7.0900   -1.3770   -2.1420 n         1 MOL     -0.728423
    127 C39        -8.2260   -0.7490   -2.7770 c3        1 MOL      0.014583
    128 C40        -8.7120    0.5200   -2.1070 c         1 MOL      0.710797
    129 O19        -9.2070    1.4270   -2.7720 o         1 MOL     -0.560856
    130 C41        -9.3400   -1.8290   -3.1750 c3        1 MOL      0.264478
    131 C42       -10.4600   -1.3390   -4.0740 c3        1 MOL     -0.273709
    132 O20        -9.8810   -2.4170   -2.0010 oh        1 MOL     -0.624950
    133 H60        -7.1740   -1.8950   -1.2780 hn        1 MOL      0.349733
    134 H61        -7.7330   -0.4700   -3.7040 h1        1 MOL      0.102835
    135 H62        -8.8120   -2.6230   -3.7030 h1        1 MOL      0.064926
    136 H63       -10.5780   -3.0670   -2.1100 ho        1 MOL      0.408873
    137 H64       -10.7660   -0.3330   -3.7820 hc        1 MOL      0.071125
    138 H65       -10.0170   -1.1760   -5.0520 hc        1 MOL      0.071125
    139 H66       -11.3590   -1.9460   -4.1790 hc        1 MOL      0.071125
    140 N12        -8.6320    0.5720   -0.7220 n         1 MOL     -0.557454
    141 C43        -9.4110    1.5100    0.1270 c3        1 MOL      0.041634
    142 C44        -8.6160    2.1340    1.2030 c         1 MOL      0.596893
    143 O21        -8.3630    1.5310    2.2730 o         1 MOL     -0.500948
    144 C45       -10.6450    0.7700    0.6930 c3        1 MOL     -0.360814
    145 C46       -11.5630    0.7110   -0.5220 c3        1 MOL      0.354320
    146 C47       -12.9260    0.0610   -0.3080 c3        1 MOL     -0.132524
    147 C48       -13.7080    0.5140    0.9320 c3        1 MOL     -0.019217
    148 N13       -14.2620    1.8390    0.7360 n4        1 MOL     -0.246290
    149 H67        -8.2690   -0.1840   -0.1610 hn        1 MOL      0.346090
    150 H68        -9.7720    2.3360   -0.4810 h1        1 MOL      0.082185
    151 H69       -11.1050    1.2180    1.5780 hc        1 MOL      0.109569
    152 H70       -10.4050   -0.2620    0.9640 hc        1 MOL      0.109569
    153 H71       -11.1150    0.1280   -1.3350 hc        1 MOL     -0.064651
    154 H72       -11.7060    1.7300   -0.8740 hc        1 MOL     -0.064651
    155 H73       -12.7940   -1.0150   -0.1570 hc        1 MOL      0.049429
    156 H74       -13.4450    0.1760   -1.2630 hc        1 MOL      0.049429
    157 H75       -13.0380    0.4270    1.7900 hx        1 MOL      0.093884
    158 H76       -14.5370   -0.1590    1.1560 hx        1 MOL      0.093884
    159 H77       -14.6390    2.0960    1.6450 hn        1 MOL      0.247205
    160 H78       -13.5460    2.5240    0.5500 hn        1 MOL      0.247205
    161 H79       -14.9540    1.9650    0.0100 hn        1 MOL      0.247205
    162 N14        -8.2180    3.4060    0.9190 n         1 MOL     -0.623845
    163 C49        -7.4990    4.3250    1.8910 c3        1 MOL      0.171442
    164 C50        -6.0350    3.9290    2.0770 c         1 MOL      0.400662
    165 O22        -5.5800    3.5820    3.1930 o         1 MOL     -0.536261
    166 C51        -7.8260    5.8660    1.6820 c3        1 MOL     -0.074032
    167 C52        -7.1790    6.7290    2.7340 c3        1 MOL     -0.255574
    168 C53        -7.5930    8.2360    2.7620 c         1 MOL      0.755382
    169 O23        -8.0080    8.7250    3.8250 o         1 MOL     -0.650672
    170 O24        -7.4030    9.0010    1.8260 o         1 MOL     -0.650672
    171 H80        -8.5410    3.8330    0.0650 hn        1 MOL      0.327155
    172 H81        -7.8470    4.1410    2.9110 h1        1 MOL      0.075300
    173 H82        -8.8970    6.0350    1.8170 hc        1 MOL      0.030056
    174 H83        -7.6870    6.2500    0.6760 hc        1 MOL      0.030056
    175 H84        -6.0820    6.6820    2.6470 hc        1 MOL      0.064055
    176 H85        -7.4090    6.3270    3.7220 hc        1 MOL      0.064055
    177 N15        -5.1610    3.9390    1.0890 n         1 MOL     -0.262279
    178 C54        -5.3360    4.4930   -0.3000 c3        1 MOL     -0.086775
    179 H86        -6.3550    4.8590   -0.4190 h1        1 MOL      0.068271
    180 H87        -4.6360    5.3150   -0.4550 h1        1 MOL      0.068271
    181 H88        -5.1440    3.7080   -1.0310 h1        1 MOL      0.068271
    182 H89        -4.2700    3.7550    1.5250 hn        1 MOL      0.258820
    183 Ca1         6.4580    5.3560   -0.2330 Ca        1 MOL      1.603730
    184 O25         3.6510    5.5850   -1.7210 oh        1 MOL     -0.744869
    185 H90         3.7570    6.1560   -0.9490 ho        1 MOL      0.374216
    186 H91         2.7190    5.6200   -1.9290 ho        1 MOL      0.374216
    187 O26         6.9540    4.8360   -2.7140 oh        1 MOL     -0.744869
    188 H92         6.4590    4.0540   -2.9500 ho        1 MOL      0.374216
    189 H93         7.3820    5.0970   -3.5350 ho        1 MOL      0.374216
    190 O27         6.8200    7.3310    1.6060 oh        1 MOL     -0.744869
    191 H94         6.8140    8.1920    1.1860 ho        1 MOL      0.374216
    192 H95         5.9660    7.2780    2.0380 ho        1 MOL      0.374216
@<TRIPOS>BOND
     1    1    2 1   
     2    1    4 1   
     3    1    5 1   
     4    1    6 1   
     5    2    3 2   
     6    2    7 1   
     7    7    8 1   
     8    7   15 1   
     9    8    9 1   
    10    8   11 1   
    11    8   16 1   
    12    9   10 2   
    13    9   19 1   
    14   11   12 1   
    15   11   17 1   
    16   11   18 1   
    17   12   13 1   
    18   12   14 1   
    19   19   20 1   
    20   19   28 1   
    21   20   21 1   
    22   20   23 1   
    23   20   29 1   
    24   21   22 2   
    25   21   41 1   
    26   23   24 1   
    27   23   30 1   
    28   23   31 1   
    29   24   25 1   
    30   24   32 1   
    31   24   33 1   
    32   25   26 1   
    33   25   34 1   
    34   25   35 1   
    35   26   27 1   
    36   26   36 1   
    37   26   37 1   
    38   27   38 1   
    39   27   39 1   
    40   27   40 1   
    41   41   42 1   
    42   41   49 1   
    43   42   43 1   
    44   42   45 1   
    45   42   50 1   
    46   43   44 2   
    47   43   53 1   
    48   45   46 1   
    49   45   51 1   
    50   45   52 1   
    51   46   47 1   
    52   46   48 1   
    53   53   54 1   
    54   53   57 1   
    55   54   55 1   
    56   54   58 1   
    57   54   59 1   
    58   55   56 2   
    59   55   60 1   
    60   60   61 1   
    61   60   68 1   
    62   61   62 1   
    63   61   64 1   
    64   61   69 1   
    65   62   63 2   
    66   62   72 1   
    67   64   65 1   
    68   64   70 1   
    69   64   71 1   
    70   65   66 1   
    71   65   67 1   
    72   72   73 1   
    73   72   76 1   
    74   73   74 1   
    75   73   77 1   
    76   73   78 1   
    77   74   75 2   
    78   74   79 1   
    79   79   80 1   
    80   79   86 1   
    81   80   81 1   
    82   80   83 1   
    83   80   87 1   
    84   81   82 2   
    85   81   93 1   
    86   83   84 1   
    87   83   85 1   
    88   83   88 1   
    89   84   90 1   
    90   84   91 1   
    91   84   92 1   
    92   85   89 1   
    93   93   94 1   
    94   93  101 1   
    95   94   95 1   
    96   94   97 1   
    97   94  102 1   
    98   95   96 2   
    99   95  112 1   
   100   97   98 1   
   101   97   99 1   
   102   97  103 1   
   103   98  100 1   
   104   98  104 1   
   105   98  105 1   
   106   99  106 1   
   107   99  107 1   
   108   99  108 1   
   109  100  109 1   
   110  100  110 1   
   111  100  111 1   
   112  112  113 1   
   113  112  119 1   
   114  113  114 1   
   115  113  116 1   
   116  113  120 1   
   117  114  115 2   
   118  114  126 1   
   119  116  117 1   
   120  116  118 1   
   121  116  121 1   
   122  117  123 1   
   123  117  124 1   
   124  117  125 1   
   125  118  122 1   
   126  126  127 1   
   127  126  133 1   
   128  127  128 1   
   129  127  130 1   
   130  127  134 1   
   131  128  129 2   
   132  128  140 1   
   133  130  131 1   
   134  130  132 1   
   135  130  135 1   
   136  131  137 1   
   137  131  138 1   
   138  131  139 1   
   139  132  136 1   
   140  140  141 1   
   141  140  149 1   
   142  141  142 1   
   143  141  144 1   
   144  141  150 1   
   145  142  143 2   
   146  142  162 1   
   147  144  145 1   
   148  144  151 1   
   149  144  152 1   
   150  145  146 1   
   151  145  153 1   
   152  145  154 1   
   153  146  147 1   
   154  146  155 1   
   155  146  156 1   
   156  147  148 1   
   157  147  157 1   
   158  147  158 1   
   159  148  159 1   
   160  148  160 1   
   161  148  161 1   
   162  162  163 1   
   163  162  171 1   
   164  163  164 1   
   165  163  166 1   
   166  163  172 1   
   167  164  165 2   
   168  164  177 1   
   169  166  167 1   
   170  166  173 1   
   171  166  174 1   
   172  167  168 1   
   173  167  175 1   
   174  167  176 1   
   175  168  169 1   
   176  168  170 1   
   177  177  178 1   
   178  177  182 1   
   179  178  179 1   
   180  178  180 1   
   181  178  181 1   
   182  184  185 1   
   183  184  186 1   
   184  187  188 1   
   185  187  189 1   
   186  190  191 1   
   187  190  192 1   
@<TRIPOS>SUBSTRUCTURE
     1 MOL         1 TEMP              0 ****  ****    0 ROOT
