@<TRIPOS>MOLECULE
MOL
  195   189     1     0     0
SMALL
resp


@<TRIPOS>ATOM
      1 C1         -3.5160   -4.3390    2.9010 c3        1 MOL     -0.156653
      2 C2         -2.4000   -4.1260    1.8640 c         1 MOL      0.577991
      3 O1         -2.1110   -2.9360    1.6890 o         1 MOL     -0.498913
      4 H1         -4.4630   -4.4940    2.3860 hc        1 MOL      0.027589
      5 H2         -3.2850   -5.2140    3.5090 hc        1 MOL      0.027589
      6 H3         -3.5900   -3.4610    3.5420 hc        1 MOL      0.027589
      7 N1         -1.9160   -5.1930    1.2110 n         1 MOL     -0.735844
      8 C3         -0.9540   -5.1130    0.1020 c3        1 MOL      0.132077
      9 C4          0.4430   -4.6250    0.5060 c         1 MOL      0.525691
     10 O2          1.2920   -4.5760   -0.4120 o         1 MOL     -0.587768
     11 C5         -1.5500   -4.5480   -1.1500 c3        1 MOL     -0.195142
     12 C6         -2.9220   -5.2280   -1.4750 c         1 MOL      0.853754
     13 O3         -3.9310   -4.4770   -1.6890 o         1 MOL     -0.763654
     14 O4         -2.9840   -6.4260   -1.4040 o         1 MOL     -0.763654
     15 H4         -2.1100   -6.1060    1.6020 hn        1 MOL      0.394725
     16 H5         -0.7540   -6.1420   -0.2010 h1        1 MOL      0.103597
     17 H6         -0.8660   -4.6660   -1.9830 hc        1 MOL      0.055975
     18 H7         -1.6740   -3.4710   -1.0040 hc        1 MOL      0.055975
     19 N2          0.6490   -4.2030    1.7210 n         1 MOL     -0.390153
     20 C7          1.9280   -3.7220    2.3230 c3        1 MOL     -0.022611
     21 C8          2.8540   -5.0400    2.4320 c         1 MOL      0.345608
     22 O5          2.4110   -6.2250    2.6990 o         1 MOL     -0.564885
     23 C9          1.7390   -2.9240    3.6610 c3        1 MOL      0.140705
     24 C10         0.7520   -3.5490    4.6310 c3        1 MOL      0.180305
     25 C11         1.3610   -1.5230    3.3030 c3        1 MOL     -0.182464
     26 C12         0.8780   -3.2290    6.0900 c3        1 MOL     -0.196697
     27 H8         -0.2020   -4.1580    2.2590 hn        1 MOL      0.210856
     28 H9          2.4340   -3.0730    1.6050 h1        1 MOL      0.093570
     29 H10         2.6950   -2.9360    4.1830 hc        1 MOL      0.008168
     30 H11         0.8740   -4.6300    4.5490 hc        1 MOL     -0.013056
     31 H12        -0.2780   -3.3580    4.3200 hc        1 MOL     -0.013056
     32 H13         2.0440   -1.1280    2.5470 hc        1 MOL      0.043331
     33 H14         0.3660   -1.4980    2.8510 hc        1 MOL      0.043331
     34 H15         1.3510   -0.9080    4.2050 hc        1 MOL      0.043331
     35 H16         1.7420   -3.6260    6.6280 hc        1 MOL      0.038045
     36 H17         0.7490   -2.1700    6.3140 hc        1 MOL      0.038045
     37 H18         0.1270   -3.7970    6.6340 hc        1 MOL      0.038045
     38 N3          4.1160   -4.8880    2.3550 n         1 MOL     -0.094856
     39 C13         4.8790   -3.7010    2.0680 c3        1 MOL     -0.191115
     40 C14         4.8770   -3.1980    0.6390 c         1 MOL      0.446390
     41 O6          5.2860   -2.0230    0.4500 o         1 MOL     -0.481948
     42 C15         6.3380   -4.0180    2.5560 c3        1 MOL     -0.150929
     43 C16         6.3310   -4.6870    3.9570 c         1 MOL      0.722601
     44 O7          6.3510   -5.9290    3.9530 o         1 MOL     -0.703225
     45 O8          6.4920   -4.0350    4.9990 o         1 MOL     -0.703225
     46 H19         4.7800   -5.6220    2.5590 hn        1 MOL      0.168863
     47 H20         4.5230   -2.9110    2.7340 h1        1 MOL      0.088439
     48 H21         6.8190   -3.0410    2.5740 hc        1 MOL      0.040193
     49 H22         6.7320   -4.6540    1.7640 hc        1 MOL      0.040193
     50 N4          4.6450   -4.0560   -0.3460 n         1 MOL     -0.152953
     51 C17         4.5140   -3.7460   -1.7470 c3        1 MOL     -0.248628
     52 C18         5.7650   -3.1220   -2.4390 c         1 MOL      0.525453
     53 O9          6.7770   -3.7860   -2.3920 o         1 MOL     -0.540425
     54 H23         4.5320   -5.0220   -0.0790 hn        1 MOL      0.248099
     55 H24         3.6270   -3.1240   -1.8830 h1        1 MOL      0.113421
     56 H25         4.1430   -4.6790   -2.1760 h1        1 MOL      0.113421
     57 N5          5.6570   -1.9890   -3.1380 n         1 MOL     -0.446516
     58 C19         6.8450   -1.2690   -3.6220 c3        1 MOL      0.189896
     59 C20         7.6390   -0.6370   -2.5480 c         1 MOL      0.381627
     60 O10         8.7470   -0.1940   -2.8080 o         1 MOL     -0.540516
     61 C21         6.3940   -0.2110   -4.6170 c3        1 MOL     -0.368986
     62 C22         5.1870    0.6170   -4.1270 c         1 MOL      0.790549
     63 O11         4.2400    0.8200   -4.9120 o         1 MOL     -0.727007
     64 O12         5.1650    1.0670   -3.0210 o         1 MOL     -0.727007
     65 H26         4.7480   -1.5890   -3.3290 hn        1 MOL      0.299425
     66 H27         7.5830   -1.9510   -4.0500 h1        1 MOL      0.057895
     67 H28         6.0340   -0.6990   -5.5190 hc        1 MOL      0.062744
     68 H29         7.1920    0.4820   -4.8760 hc        1 MOL      0.062744
     69 N6          7.1400   -0.6170   -1.2560 n         1 MOL     -0.101870
     70 C23         7.7730    0.0360   -0.0630 c3        1 MOL     -0.286386
     71 C24         7.7200    1.6120   -0.0940 c         1 MOL      0.420762
     72 O13         8.3630    2.3280    0.7220 o         1 MOL     -0.544834
     73 H30         6.2760   -1.0770   -1.0360 hn        1 MOL      0.132647
     74 H31         8.8040   -0.2420    0.1030 h1        1 MOL      0.146542
     75 H32         7.2010   -0.1900    0.8430 h1        1 MOL      0.146542
     76 N7          6.8550    2.1900   -1.0280 n         1 MOL     -0.036711
     77 C25         6.3900    3.5970   -1.0470 c3        1 MOL      0.040582
     78 C26         5.8630    4.0550    0.3040 c         1 MOL      0.557594
     79 O14         5.8690    5.2190    0.6800 o         1 MOL     -0.531310
     80 C27         7.4450    4.5280   -1.6050 c3        1 MOL     -0.148093
     81 C28         7.6690    4.2100   -3.0900 c3        1 MOL     -0.068119
     82 C29         8.6490    5.1640   -3.7410 c         1 MOL      0.675280
     83 N8          8.8190    5.1060   -5.0330 n         1 MOL     -0.826481
     84 O15         9.2220    6.0490   -3.0890 o         1 MOL     -0.591548
     85 H33         6.4270    1.5670   -1.7120 hn        1 MOL      0.110740
     86 H34         5.5150    3.6350   -1.7040 h1        1 MOL      0.067051
     87 H35         8.2860    4.3900   -0.9220 hc        1 MOL      0.051522
     88 H36         7.0760    5.5530   -1.6990 hc        1 MOL      0.051522
     89 H37         6.7450    4.2640   -3.6640 hc        1 MOL      0.051640
     90 H38         8.1330    3.2220   -3.1740 hc        1 MOL      0.051640
     91 H39         8.3620    4.4070   -5.6010 hn        1 MOL      0.350979
     92 H40         9.4780    5.7230   -5.4870 hn        1 MOL      0.350979
     93 N9          5.2400    3.0900    0.9710 n         1 MOL     -0.363768
     94 C30         4.6200    3.3280    2.2530 c3        1 MOL     -0.293515
     95 C31         3.0990    3.5030    2.2100 c         1 MOL      0.772095
     96 O16         2.5560    4.2480    3.0110 o         1 MOL     -0.580118
     97 C32         4.9940    2.2550    3.3120 c3        1 MOL      0.406962
     98 C33         4.9100    0.7650    2.8860 c3        1 MOL     -0.402191
     99 C34         6.4390    2.5720    3.9150 c3        1 MOL     -0.402191
    100 H41         5.0810    2.1870    0.5620 hn        1 MOL      0.180239
    101 H42         5.0420    4.2550    2.6620 h1        1 MOL      0.128620
    102 H43         4.2910    2.3780    4.1460 hc        1 MOL     -0.057925
    103 H44         4.8680    0.1340    3.7680 hc        1 MOL      0.100518
    104 H45         3.9870    0.5290    2.3530 hc        1 MOL      0.100518
    105 H46         5.8290    0.5720    2.3250 hc        1 MOL      0.100518
    106 H47         6.3660    3.0580    4.8920 hc        1 MOL      0.100518
    107 H48         6.8910    1.5950    4.0570 hc        1 MOL      0.100518
    108 H49         6.9820    3.2050    3.2050 hc        1 MOL      0.100518
    109 N10         2.4640    2.7310    1.3050 n         1 MOL     -0.740091
    110 C35         1.0340    2.5130    1.2710 c3        1 MOL      0.432941
    111 C36         0.2270    3.6030    0.5630 c         1 MOL      0.442534
    112 O17         0.7890    4.5830    0.0720 o         1 MOL     -0.503926
    113 C37         0.7420    1.1200    0.5420 c3        1 MOL     -0.326026
    114 C38        -0.4610    0.3810    1.0340 c         1 MOL      0.623784
    115 N11        -0.6650   -0.8400    0.5750 n         1 MOL     -0.665747
    116 O18        -1.2430    0.9000    1.8080 o         1 MOL     -0.545787
    117 H50         3.0930    2.1850    0.7290 hn        1 MOL      0.356477
    118 H51         0.7460    2.4500    2.3200 h1        1 MOL     -0.011342
    119 H52         1.6440    0.5120    0.6010 hc        1 MOL      0.086347
    120 H53         0.4610    1.3420   -0.4810 hc        1 MOL      0.086347
    121 H54         0.0080   -1.2890   -0.0260 hn        1 MOL      0.339357
    122 H55        -1.4450   -1.4120    0.8640 hn        1 MOL      0.339357
    123 N12        -1.1000    3.3930    0.6000 n         1 MOL     -0.380403
    124 C39        -2.1400    4.3920    0.2200 c3        1 MOL      0.031153
    125 C40        -3.5480    4.1700    0.7460 c         1 MOL      0.579994
    126 O19        -3.8440    3.0530    1.2300 o         1 MOL     -0.528125
    127 C41        -2.1980    4.4380   -1.3040 c3        1 MOL     -0.023211
    128 C42        -3.1240    3.4420   -2.1090 ca        1 MOL      0.040626
    129 C43        -2.8980    2.0730   -2.0430 ca        1 MOL     -0.167003
    130 C44        -4.0460    3.9530   -3.0620 ca        1 MOL     -0.167003
    131 C45        -3.6260    1.1730   -2.8940 ca        1 MOL     -0.203700
    132 C46        -4.7050    3.0760   -3.9980 ca        1 MOL     -0.203700
    133 C47        -4.4780    1.7170   -3.8690 ca        1 MOL      0.305828
    134 O20        -4.9860    0.8690   -4.8130 oh        1 MOL     -0.592013
    135 H56        -1.4480    2.5720    1.0790 hn        1 MOL      0.220422
    136 H57        -1.8870    5.4190    0.4900 h1        1 MOL      0.086060
    137 H58        -1.2340    4.3100   -1.7960 hc        1 MOL      0.028045
    138 H59        -2.4050    5.4930   -1.4830 hc        1 MOL      0.028045
    139 H60        -2.2060    1.6590   -1.3280 ha        1 MOL      0.132264
    140 H61        -4.1890    5.0260   -3.1010 ha        1 MOL      0.132264
    141 H62        -3.4070    0.1160   -2.8910 ha        1 MOL      0.128121
    142 H63        -5.2590    3.4590   -4.8450 ha        1 MOL      0.128121
    143 H64        -4.8890   -0.0890   -4.7090 ho        1 MOL      0.445159
    144 N13        -4.4210    5.1550    0.6510 n         1 MOL     -0.633995
    145 C48        -5.8840    5.0280    0.8540 c3        1 MOL      0.200662
    146 C49        -6.5930    4.8600   -0.4940 c         1 MOL      0.428866
    147 O21        -6.8610    5.8430   -1.1740 o         1 MOL     -0.565151
    148 C50        -6.3450    6.1230    1.7960 c3        1 MOL      0.044604
    149 C51        -5.5910    6.2660    3.1460 c3        1 MOL     -0.083730
    150 C52        -6.2180    7.2700    4.0770 c         1 MOL      0.653699
    151 O22        -5.4380    8.1490    4.5400 o         1 MOL     -0.685270
    152 O23        -7.4740    7.1980    4.3500 o         1 MOL     -0.685270
    153 H65        -4.1660    5.9670    0.1010 hn        1 MOL      0.347760
    154 H66        -5.9510    4.0510    1.3260 h1        1 MOL     -0.029414
    155 H67        -7.3870    5.9560    2.0600 hc        1 MOL     -0.003737
    156 H68        -6.3420    7.0920    1.2890 hc        1 MOL     -0.003737
    157 H69        -4.6130    6.6840    2.9140 hc        1 MOL      0.007243
    158 H70        -5.6480    5.2870    3.6190 hc        1 MOL      0.007243
    159 N14        -6.8510    3.6280   -0.9750 n         1 MOL     -0.219171
    160 C53        -6.8310    2.3400   -0.3120 c3        1 MOL     -0.347774
    161 C54        -7.8400    2.1950    0.8640 c         1 MOL      0.599900
    162 O24        -9.0400    2.4990    0.7100 o         1 MOL     -0.539728
    163 C55        -7.1140    1.2220   -1.3780 c3        1 MOL      0.056627
    164 C56        -6.8290   -0.1720   -0.8580 c3        1 MOL     -0.421551
    165 C57        -7.0710   -1.2060   -1.9480 c         1 MOL      0.875243
    166 O25        -7.8470   -0.9410   -2.8830 o         1 MOL     -0.739525
    167 O26        -6.3350   -2.2150   -2.0150 o         1 MOL     -0.739525
    168 H71        -7.1550    3.6690   -1.9480 hn        1 MOL      0.224987
    169 H72        -5.8100    2.1140   -0.0210 h1        1 MOL      0.206257
    170 H73        -6.5070    1.3820   -2.2660 hc        1 MOL      0.073032
    171 H74        -8.1260    1.0940   -1.7530 hc        1 MOL      0.073032
    172 H75        -7.5140   -0.3590   -0.0250 hc        1 MOL      0.051312
    173 H76        -5.8600   -0.2610   -0.3750 hc        1 MOL      0.051312
    174 N15        -7.2790    1.6460    1.9720 n         1 MOL     -0.235072
    175 C58        -7.9750    1.4010    3.2810 c3        1 MOL     -0.159644
    176 H77        -9.0030    1.0920    3.0940 h1        1 MOL      0.079779
    177 H78        -7.4540    0.6150    3.8290 h1        1 MOL      0.079779
    178 H79        -7.9740    2.3170    3.8710 h1        1 MOL      0.079779
    179 H80        -6.3310    1.3060    1.8990 hn        1 MOL      0.259866
    180 Ca1        -6.5250   -4.8090   -1.4120 Ca        1 MOL      1.720007
    181 O27        -5.5080   -7.2630   -1.4950 oh        1 MOL     -0.891619
    182 H81        -5.4380   -8.0720   -1.9980 ho        1 MOL      0.423628
    183 H82        -4.6250   -7.1190   -1.1500 ho        1 MOL      0.423628
    184 O28        -7.5580   -3.2090    0.5040 oh        1 MOL     -0.891619
    185 H83        -7.0190   -2.5630    0.9610 ho        1 MOL      0.423628
    186 H84        -8.1670   -3.5160    1.1650 ho        1 MOL      0.423628
    187 O29        -7.9560   -6.4880   -2.8350 oh        1 MOL     -0.891619
    188 H85        -7.8770   -7.3330   -2.3890 ho        1 MOL      0.423628
    189 H86        -8.5330   -6.6710   -3.5810 ho        1 MOL      0.423628
    190 O30        -8.8070   -3.7580   -2.4800 oh        1 MOL     -0.891619
    191 H87        -9.4740   -3.7930   -3.1680 ho        1 MOL      0.423628
    192 H88        -8.3390   -2.9310   -2.6400 ho        1 MOL      0.423628
    193 O31        -6.2250   -4.6450   -4.3540 oh        1 MOL     -0.891619
    194 H89        -5.9250   -3.9470   -4.9410 ho        1 MOL      0.423628
    195 H90        -6.7530   -5.2100   -4.9140 ho        1 MOL      0.423628
@<TRIPOS>BOND
     1    1    2 1   
     2    1    4 1   
     3    1    5 1   
     4    1    6 1   
     5    2    3 2   
     6    2    7 1   
     7    7    8 1   
     8    7   15 1   
     9    8    9 1   
    10    8   11 1   
    11    8   16 1   
    12    9   10 2   
    13    9   19 1   
    14   11   12 1   
    15   11   17 1   
    16   11   18 1   
    17   12   13 1   
    18   12   14 1   
    19   19   20 1   
    20   19   27 1   
    21   20   21 1   
    22   20   23 1   
    23   20   28 1   
    24   21   22 2   
    25   21   38 1   
    26   23   24 1   
    27   23   25 1   
    28   23   29 1   
    29   24   26 1   
    30   24   30 1   
    31   24   31 1   
    32   25   32 1   
    33   25   33 1   
    34   25   34 1   
    35   26   35 1   
    36   26   36 1   
    37   26   37 1   
    38   38   39 1   
    39   38   46 1   
    40   39   40 1   
    41   39   42 1   
    42   39   47 1   
    43   40   41 2   
    44   40   50 1   
    45   42   43 1   
    46   42   48 1   
    47   42   49 1   
    48   43   44 1   
    49   43   45 1   
    50   50   51 1   
    51   50   54 1   
    52   51   52 1   
    53   51   55 1   
    54   51   56 1   
    55   52   53 2   
    56   52   57 1   
    57   57   58 1   
    58   57   65 1   
    59   58   59 1   
    60   58   61 1   
    61   58   66 1   
    62   59   60 2   
    63   59   69 1   
    64   61   62 1   
    65   61   67 1   
    66   61   68 1   
    67   62   63 1   
    68   62   64 1   
    69   69   70 1   
    70   69   73 1   
    71   70   71 1   
    72   70   74 1   
    73   70   75 1   
    74   71   72 2   
    75   71   76 1   
    76   76   77 1   
    77   76   85 1   
    78   77   78 1   
    79   77   80 1   
    80   77   86 1   
    81   78   79 2   
    82   78   93 1   
    83   80   81 1   
    84   80   87 1   
    85   80   88 1   
    86   81   82 1   
    87   81   89 1   
    88   81   90 1   
    89   82   83 1   
    90   82   84 2   
    91   83   91 1   
    92   83   92 1   
    93   93   94 1   
    94   93  100 1   
    95   94   95 1   
    96   94   97 1   
    97   94  101 1   
    98   95   96 2   
    99   95  109 1   
   100   97   98 1   
   101   97   99 1   
   102   97  102 1   
   103   98  103 1   
   104   98  104 1   
   105   98  105 1   
   106   99  106 1   
   107   99  107 1   
   108   99  108 1   
   109  109  110 1   
   110  109  117 1   
   111  110  111 1   
   112  110  113 1   
   113  110  118 1   
   114  111  112 2   
   115  111  123 1   
   116  113  114 1   
   117  113  119 1   
   118  113  120 1   
   119  114  115 1   
   120  114  116 2   
   121  115  121 1   
   122  115  122 1   
   123  123  124 1   
   124  123  135 1   
   125  124  125 1   
   126  124  127 1   
   127  124  136 1   
   128  125  126 2   
   129  125  144 1   
   130  127  128 1   
   131  127  137 1   
   132  127  138 1   
   133  128  129 ar  
   134  128  130 ar  
   135  129  131 ar  
   136  129  139 1   
   137  130  132 ar  
   138  130  140 1   
   139  131  133 ar  
   140  131  141 1   
   141  132  133 ar  
   142  132  142 1   
   143  133  134 1   
   144  134  143 1   
   145  144  145 1   
   146  144  153 1   
   147  145  146 1   
   148  145  148 1   
   149  145  154 1   
   150  146  147 2   
   151  146  159 1   
   152  148  149 1   
   153  148  155 1   
   154  148  156 1   
   155  149  150 1   
   156  149  157 1   
   157  149  158 1   
   158  150  151 1   
   159  150  152 1   
   160  159  160 1   
   161  159  168 1   
   162  160  161 1   
   163  160  163 1   
   164  160  169 1   
   165  161  162 2   
   166  161  174 1   
   167  163  164 1   
   168  163  170 1   
   169  163  171 1   
   170  164  165 1   
   171  164  172 1   
   172  164  173 1   
   173  165  166 1   
   174  165  167 1   
   175  174  175 1   
   176  174  179 1   
   177  175  176 1   
   178  175  177 1   
   179  175  178 1   
   180  181  182 1   
   181  181  183 1   
   182  184  185 1   
   183  184  186 1   
   184  187  188 1   
   185  187  189 1   
   186  190  191 1   
   187  190  192 1   
   188  193  194 1   
   189  193  195 1   
@<TRIPOS>SUBSTRUCTURE
     1 MOL         1 TEMP              0 ****  ****    0 ROOT
