@<TRIPOS>MOLECULE
MOL
  192   187     1     0     0
SMALL
resp


@<TRIPOS>ATOM
      1 C1          3.8280    3.9250   -4.2490 c3        1 MOL     -0.437749
      2 C2          4.6070    3.1410   -3.1410 c         1 MOL      0.844012
      3 O1          3.9640    2.7280   -2.1780 o         1 MOL     -0.598956
      4 H1          4.2870    4.9030   -4.3920 hc        1 MOL      0.101715
      5 H2          3.8650    3.3670   -5.1850 hc        1 MOL      0.101715
      6 H3          2.7900    4.0520   -3.9420 hc        1 MOL      0.101715
      7 N1          5.8920    2.8710   -3.4140 n         1 MOL     -0.779196
      8 C3          6.7500    1.7820   -2.8960 c3        1 MOL      0.418230
      9 C4          5.9770    0.5390   -2.3870 c         1 MOL      0.241060
     10 O2          5.7430    0.4310   -1.1730 o         1 MOL     -0.602775
     11 C5          7.7720    2.2730   -1.8640 c3        1 MOL     -0.389366
     12 C6          7.3490    3.3320   -0.8170 c         1 MOL      0.832387
     13 O3          6.7550    3.0010    0.1880 o         1 MOL     -0.741561
     14 O4          7.7070    4.5200   -0.9260 o         1 MOL     -0.741561
     15 H4          6.2060    3.1620   -4.3290 hn        1 MOL      0.338297
     16 H5          7.3180    1.4690   -3.7640 h1        1 MOL     -0.004097
     17 H6          8.7420    2.4850   -2.3130 hc        1 MOL      0.082341
     18 H7          8.0440    1.4320   -1.2230 hc        1 MOL      0.082341
     19 N2          5.5630   -0.2890   -3.2910 n         1 MOL     -0.309033
     20 C7          4.9430   -1.5440   -2.9410 c3        1 MOL      0.254936
     21 C8          5.8960   -2.6180   -2.3950 c         1 MOL      0.291018
     22 O5          6.3690   -3.4720   -3.1110 o         1 MOL     -0.536695
     23 C9          3.5620   -1.4410   -2.2700 c3        1 MOL      0.081077
     24 C10         2.8170   -2.8100   -2.0410 c3        1 MOL     -0.298304
     25 C11         2.5500   -0.4750   -2.8790 c3        1 MOL     -0.518138
     26 C12         2.5010   -3.7430   -3.1980 c3        1 MOL     -0.213073
     27 H8          5.8550   -0.0820   -4.2380 hn        1 MOL      0.242579
     28 H9          4.7630   -1.8780   -3.9610 h1        1 MOL     -0.016639
     29 H10         3.7420   -1.0680   -1.2630 hc        1 MOL      0.018171
     30 H11         1.8170   -2.4970   -1.7440 hc        1 MOL      0.124637
     31 H12         3.1830   -3.4260   -1.2160 hc        1 MOL      0.124637
     32 H13         2.9990    0.5040   -2.9820 hc        1 MOL      0.140899
     33 H14         2.2380   -0.8870   -3.8400 hc        1 MOL      0.140899
     34 H15         1.7040   -0.4270   -2.2030 hc        1 MOL      0.140899
     35 H16         1.7410   -3.3560   -3.8840 hc        1 MOL      0.055416
     36 H17         3.4520   -3.9280   -3.6860 hc        1 MOL      0.055416
     37 H18         2.1340   -4.7030   -2.8400 hc        1 MOL      0.055416
     38 N3          6.1570   -2.4360   -1.0880 n         1 MOL     -0.051697
     39 C13         7.1320   -3.2690   -0.2560 c3        1 MOL     -0.029542
     40 C14         6.4980   -4.6010    0.1380 c         1 MOL      0.577222
     41 O6          7.2390   -5.5850    0.0270 o         1 MOL     -0.583724
     42 C15         7.5760   -2.4660    0.9460 c3        1 MOL     -0.052409
     43 C16         8.3500   -1.2490    0.5150 c         1 MOL      0.715213
     44 O7          8.7350   -0.5280    1.4330 o         1 MOL     -0.706940
     45 O8          8.8120   -1.1850   -0.6880 o         1 MOL     -0.706940
     46 H19         5.7930   -1.6210   -0.6160 hn        1 MOL      0.300573
     47 H20         8.0250   -3.3800   -0.8780 h1        1 MOL      0.066388
     48 H21         8.0970   -3.0810    1.6780 hc        1 MOL      0.020499
     49 H22         6.6890   -2.0170    1.3860 hc        1 MOL      0.020499
     50 N4          5.2140   -4.7700    0.6090 n         1 MOL     -0.601408
     51 C17         4.4360   -3.6870    1.2250 c3        1 MOL      0.203765
     52 C18         4.8150   -3.4580    2.6900 c         1 MOL      0.400540
     53 O9          5.8650   -3.8700    3.0670 o         1 MOL     -0.512751
     54 H23         4.8500   -5.6890    0.8120 hn        1 MOL      0.314341
     55 H24         3.3840   -3.9580    1.1250 h1        1 MOL     -0.007128
     56 H25         4.5740   -2.7510    0.6780 h1        1 MOL     -0.007128
     57 N5          4.0390   -2.6880    3.4050 n         1 MOL     -0.363765
     58 C19         2.7090   -2.0300    3.1430 c3        1 MOL      0.047762
     59 C20         2.6100   -0.9030    2.0970 c         1 MOL      0.479152
     60 O10         3.6220   -0.4360    1.5800 o         1 MOL     -0.553234
     61 C21         2.2100   -1.6920    4.5540 c3        1 MOL     -0.250776
     62 C22         3.1090   -0.7190    5.3210 c         1 MOL      0.678972
     63 O11         2.7790    0.5160    5.3240 o         1 MOL     -0.676117
     64 O12         4.0930   -1.2460    5.9110 o         1 MOL     -0.676117
     65 H26         4.2940   -2.6270    4.3900 hn        1 MOL      0.267775
     66 H27         2.1580   -2.8700    2.7150 h1        1 MOL      0.029198
     67 H28         2.0030   -2.5960    5.1270 hc        1 MOL      0.064276
     68 H29         1.2170   -1.2650    4.4470 hc        1 MOL      0.064276
     69 N6          1.4640   -0.5120    1.5660 n         1 MOL     -0.268611
     70 C23         0.0870   -0.8980    1.7910 c3        1 MOL      0.065496
     71 C24        -0.2340   -2.2570    1.1950 c         1 MOL      0.633207
     72 O13         0.6900   -2.9500    0.8010 o         1 MOL     -0.528970
     73 H30         1.5700    0.1290    0.7890 hn        1 MOL      0.167477
     74 H31        -0.5700   -0.1270    1.3970 h1        1 MOL      0.007755
     75 H32        -0.0580   -0.9650    2.8620 h1        1 MOL      0.007755
     76 N7         -1.5160   -2.5970    1.1440 n         1 MOL     -0.586440
     77 C25        -2.0330   -3.9050    0.7400 c3        1 MOL      0.124101
     78 C26        -2.7300   -3.9450   -0.6050 c         1 MOL      0.455104
     79 O14        -2.9510   -5.0390   -1.0800 o         1 MOL     -0.536143
     80 C27        -2.9240   -4.5850    1.8130 c3        1 MOL      0.135080
     81 C28        -4.3000   -3.9760    2.3080 c3        1 MOL     -0.572369
     82 C29        -5.2890   -3.6630    1.0960 c         1 MOL      0.594067
     83 N8         -5.8830   -4.6480    0.4200 n         1 MOL     -0.736639
     84 O15        -5.4330   -2.5080    0.7810 o         1 MOL     -0.441228
     85 H33        -2.2030   -1.8970    1.3880 hn        1 MOL      0.296060
     86 H34        -1.1920   -4.5780    0.5720 h1        1 MOL      0.085200
     87 H35        -2.3300   -4.7640    2.7080 hc        1 MOL     -0.004507
     88 H36        -3.1190   -5.5480    1.3420 hc        1 MOL     -0.004507
     89 H37        -4.0900   -3.0490    2.8410 hc        1 MOL      0.189342
     90 H38        -4.8120   -4.7420    2.8920 hc        1 MOL      0.189342
     91 H39        -5.7870   -5.5980    0.7660 hn        1 MOL      0.357778
     92 H40        -6.6230   -4.5250   -0.2520 hn        1 MOL      0.357778
     93 N9         -3.0780   -2.7960   -1.2470 n         1 MOL     -0.203438
     94 C30        -3.5100   -2.6720   -2.6670 c3        1 MOL     -0.131472
     95 C31        -4.9810   -2.4380   -3.0240 c         1 MOL      0.403515
     96 O16        -5.3260   -2.2710   -4.1760 o         1 MOL     -0.527024
     97 C32        -2.5500   -1.6850   -3.4390 c3        1 MOL      0.261177
     98 C33        -1.0010   -2.0150   -3.2680 c3        1 MOL     -0.091077
     99 C34        -2.6710   -0.1900   -3.1000 c3        1 MOL     -0.091077
    100 H41        -3.0710   -1.9410   -0.7010 hn        1 MOL      0.188759
    101 H42        -3.1720   -3.5870   -3.1400 h1        1 MOL      0.106821
    102 H43        -2.7190   -1.8300   -4.5130 hc        1 MOL     -0.026535
    103 H44        -0.6940   -2.0460   -2.2230 hc        1 MOL      0.003866
    104 H45        -0.8420   -3.0070   -3.6820 hc        1 MOL      0.003866
    105 H46        -0.2980   -1.4010   -3.8220 hc        1 MOL      0.003866
    106 H47        -3.6970    0.0270   -3.3820 hc        1 MOL      0.003866
    107 H48        -2.4640    0.0090   -2.0520 hc        1 MOL      0.003866
    108 H49        -1.9850    0.3720   -3.7340 hc        1 MOL      0.003866
    109 N10        -5.9090   -2.2250   -2.0760 n         1 MOL     -0.179344
    110 C35        -7.2550   -1.6870   -2.3030 c3        1 MOL     -0.027166
    111 C36        -7.3670   -0.1820   -1.9250 c         1 MOL      0.497982
    112 O17        -8.3170    0.4650   -2.3710 o         1 MOL     -0.555338
    113 C37        -8.2790   -2.5910   -1.5700 c3        1 MOL     -0.097873
    114 C38        -8.4750   -4.0070   -2.0130 c         1 MOL      0.668651
    115 N11        -8.9050   -4.2290   -3.1960 n         1 MOL     -0.754843
    116 O18        -8.2240   -4.8640   -1.2270 o         1 MOL     -0.593649
    117 H50        -5.5800   -2.2690   -1.1200 hn        1 MOL      0.116013
    118 H51        -7.4830   -1.8300   -3.3580 h1        1 MOL      0.079751
    119 H52        -9.3000   -2.2190   -1.7150 hc        1 MOL      0.024983
    120 H53        -8.0720   -2.6380   -0.5020 hc        1 MOL      0.024983
    121 H54        -9.0070   -3.4700   -3.8540 hn        1 MOL      0.364570
    122 H55        -8.9120   -5.2210   -3.3930 hn        1 MOL      0.364570
    123 N12        -6.4430    0.4460   -1.1900 n         1 MOL     -0.264482
    124 C39        -6.6140    1.8210   -0.7750 c3        1 MOL     -0.022264
    125 C40        -5.2650    2.5140   -0.2970 c         1 MOL      0.463465
    126 O19        -4.1780    1.9220   -0.4220 o         1 MOL     -0.459759
    127 C41        -7.6260    1.7900    0.4360 c3        1 MOL      0.051207
    128 C42        -7.4800    0.6270    1.4570 ca        1 MOL      0.055569
    129 C43        -8.4040   -0.4570    1.4320 ca        1 MOL     -0.242697
    130 C44        -6.4230    0.6520    2.3730 ca        1 MOL     -0.242697
    131 C45        -8.2080   -1.4430    2.4060 ca        1 MOL     -0.103868
    132 C46        -6.2590   -0.3520    3.2870 ca        1 MOL     -0.103868
    133 C47        -7.1860   -1.4610    3.2940 ca        1 MOL      0.155851
    134 O20        -6.9540   -2.5470    4.1520 oh        1 MOL     -0.471878
    135 H56        -5.5450    0.0040   -1.0520 hn        1 MOL      0.224003
    136 H57        -7.0290    2.4090   -1.5900 h1        1 MOL      0.077521
    137 H58        -8.6520    1.6900    0.0800 hc        1 MOL      0.006400
    138 H59        -7.6570    2.7700    0.9150 hc        1 MOL      0.006400
    139 H60        -9.2390   -0.5030    0.7470 ha        1 MOL      0.153407
    140 H61        -5.7270    1.4810    2.4000 ha        1 MOL      0.153407
    141 H62        -8.9290   -2.2410    2.2990 ha        1 MOL      0.113481
    142 H63        -5.5610   -0.3150    4.1170 ha        1 MOL      0.113481
    143 H64        -7.6400   -3.2250    4.1890 ho        1 MOL      0.344598
    144 N13        -5.3130    3.6930    0.3500 n         1 MOL     -0.420904
    145 C48        -4.3030    4.4490    1.1160 c3        1 MOL     -0.039072
    146 C49        -2.9310    4.7870    0.5220 c         1 MOL      0.439866
    147 O21        -2.2700    5.7100    0.9370 o         1 MOL     -0.451719
    148 C50        -4.1840    3.9410    2.5070 c3        1 MOL     -0.179327
    149 C51        -5.4370    4.2640    3.4040 c3        1 MOL     -0.414541
    150 C52        -5.5090    5.8020    3.5500 c         1 MOL      0.727964
    151 O22        -6.4680    6.5190    3.0980 o         1 MOL     -0.710344
    152 O23        -4.6350    6.3770    4.1870 o         1 MOL     -0.710344
    153 H65        -6.1860    4.1970    0.3910 hn        1 MOL      0.268472
    154 H66        -4.6780    5.4620    1.2490 h1        1 MOL      0.127761
    155 H67        -3.3510    4.4690    2.9570 hc        1 MOL      0.128926
    156 H68        -3.9780    2.8770    2.3500 hc        1 MOL      0.128926
    157 H69        -5.3820    3.7580    4.3690 hc        1 MOL      0.106930
    158 H70        -6.3250    3.7760    3.0050 hc        1 MOL      0.106930
    159 N14        -2.4380    4.0660   -0.5290 n         1 MOL     -0.159870
    160 C53        -1.1790    4.2140   -1.2730 c3        1 MOL     -0.146079
    161 C54        -1.3790    5.0870   -2.5850 c         1 MOL      0.607205
    162 O24        -0.9720    6.2330   -2.6940 o         1 MOL     -0.526218
    163 C55        -0.5770    2.8250   -1.5350 c3        1 MOL     -0.071332
    164 C56         0.0770    2.0360   -0.3240 c3        1 MOL      0.386201
    165 C57         1.4740    2.5200   -0.1450 c         1 MOL      0.490810
    166 O25         1.6460    3.7590    0.1210 o         1 MOL     -0.594431
    167 O26         2.2840    1.6010    0.0860 o         1 MOL     -0.594431
    168 H71        -2.9850    3.3080   -0.9150 hn        1 MOL      0.098571
    169 H72        -0.4880    4.6710   -0.5730 h1        1 MOL      0.084927
    170 H73         0.1530    2.8920   -2.3390 hc        1 MOL     -0.004986
    171 H74        -1.3930    2.2420   -1.9650 hc        1 MOL     -0.004986
    172 H75        -0.0080    0.9700   -0.5500 hc        1 MOL     -0.100883
    173 H76        -0.4630    2.2410    0.5980 hc        1 MOL     -0.100883
    174 N15        -2.2140    4.6010   -3.5290 n         1 MOL     -0.475037
    175 C58        -2.9740    5.4190   -4.4930 c3        1 MOL     -0.070162
    176 H77        -2.4720    6.3750   -4.6320 h1        1 MOL      0.066368
    177 H78        -3.0310    4.8970   -5.4480 h1        1 MOL      0.066368
    178 H79        -3.9810    5.5910   -4.1110 h1        1 MOL      0.066368
    179 H80        -2.6660    3.7570   -3.2220 hn        1 MOL      0.301465
    180 Ca1         4.6110    1.8200    0.9870 Ca        1 MOL      1.750613
    181 O27         6.5290    0.4100    2.3060 oh        1 MOL     -0.829854
    182 H81         6.6350    0.3810    3.2570 ho        1 MOL      0.393414
    183 H82         7.3830    0.1290    1.9580 ho        1 MOL      0.393414
    184 O28         4.2540    4.6450    0.7920 oh        1 MOL     -0.829854
    185 H83         3.3080    4.7870    0.8680 ho        1 MOL      0.393414
    186 H84         4.5130    5.1680    0.0430 ho        1 MOL      0.393414
    187 O29         3.1030    2.0320    3.2040 oh        1 MOL     -0.829854
    188 H85         3.2020    1.4260    3.9430 ho        1 MOL      0.393414
    189 H86         3.2850    2.8980    3.5720 ho        1 MOL      0.393414
    190 O30         5.5680    3.0150    3.1560 oh        1 MOL     -0.829854
    191 H87         6.3200    3.5070    2.8150 ho        1 MOL      0.393414
    192 H88         5.6920    3.0090    4.1020 ho        1 MOL      0.393414
@<TRIPOS>BOND
     1    1    2 1   
     2    1    4 1   
     3    1    5 1   
     4    1    6 1   
     5    2    3 2   
     6    2    7 1   
     7    7    8 1   
     8    7   15 1   
     9    8    9 1   
    10    8   11 1   
    11    8   16 1   
    12    9   10 2   
    13    9   19 1   
    14   11   12 1   
    15   11   17 1   
    16   11   18 1   
    17   12   13 1   
    18   12   14 1   
    19   19   20 1   
    20   19   27 1   
    21   20   21 1   
    22   20   23 1   
    23   20   28 1   
    24   21   22 2   
    25   21   38 1   
    26   23   24 1   
    27   23   25 1   
    28   23   29 1   
    29   24   26 1   
    30   24   30 1   
    31   24   31 1   
    32   25   32 1   
    33   25   33 1   
    34   25   34 1   
    35   26   35 1   
    36   26   36 1   
    37   26   37 1   
    38   38   39 1   
    39   38   46 1   
    40   39   40 1   
    41   39   42 1   
    42   39   47 1   
    43   40   41 2   
    44   40   50 1   
    45   42   43 1   
    46   42   48 1   
    47   42   49 1   
    48   43   44 1   
    49   43   45 1   
    50   50   51 1   
    51   50   54 1   
    52   51   52 1   
    53   51   55 1   
    54   51   56 1   
    55   52   53 2   
    56   52   57 1   
    57   57   58 1   
    58   57   65 1   
    59   58   59 1   
    60   58   61 1   
    61   58   66 1   
    62   59   60 2   
    63   59   69 1   
    64   61   62 1   
    65   61   67 1   
    66   61   68 1   
    67   62   63 1   
    68   62   64 1   
    69   69   70 1   
    70   69   73 1   
    71   70   71 1   
    72   70   74 1   
    73   70   75 1   
    74   71   72 2   
    75   71   76 1   
    76   76   77 1   
    77   76   85 1   
    78   77   78 1   
    79   77   80 1   
    80   77   86 1   
    81   78   79 2   
    82   78   93 1   
    83   80   81 1   
    84   80   87 1   
    85   80   88 1   
    86   81   82 1   
    87   81   89 1   
    88   81   90 1   
    89   82   83 1   
    90   82   84 2   
    91   83   91 1   
    92   83   92 1   
    93   93   94 1   
    94   93  100 1   
    95   94   95 1   
    96   94   97 1   
    97   94  101 1   
    98   95   96 2   
    99   95  109 1   
   100   97   98 1   
   101   97   99 1   
   102   97  102 1   
   103   98  103 1   
   104   98  104 1   
   105   98  105 1   
   106   99  106 1   
   107   99  107 1   
   108   99  108 1   
   109  109  110 1   
   110  109  117 1   
   111  110  111 1   
   112  110  113 1   
   113  110  118 1   
   114  111  112 2   
   115  111  123 1   
   116  113  114 1   
   117  113  119 1   
   118  113  120 1   
   119  114  115 1   
   120  114  116 2   
   121  115  121 1   
   122  115  122 1   
   123  123  124 1   
   124  123  135 1   
   125  124  125 1   
   126  124  127 1   
   127  124  136 1   
   128  125  126 2   
   129  125  144 1   
   130  127  128 1   
   131  127  137 1   
   132  127  138 1   
   133  128  129 ar  
   134  128  130 ar  
   135  129  131 ar  
   136  129  139 1   
   137  130  132 ar  
   138  130  140 1   
   139  131  133 ar  
   140  131  141 1   
   141  132  133 ar  
   142  132  142 1   
   143  133  134 1   
   144  134  143 1   
   145  144  145 1   
   146  144  153 1   
   147  145  146 1   
   148  145  148 1   
   149  145  154 1   
   150  146  147 2   
   151  146  159 1   
   152  148  149 1   
   153  148  155 1   
   154  148  156 1   
   155  149  150 1   
   156  149  157 1   
   157  149  158 1   
   158  150  151 1   
   159  150  152 1   
   160  159  160 1   
   161  159  168 1   
   162  160  161 1   
   163  160  163 1   
   164  160  169 1   
   165  161  162 2   
   166  161  174 1   
   167  163  164 1   
   168  163  170 1   
   169  163  171 1   
   170  164  165 1   
   171  164  172 1   
   172  164  173 1   
   173  165  166 1   
   174  165  167 1   
   175  174  175 1   
   176  174  179 1   
   177  175  176 1   
   178  175  177 1   
   179  175  178 1   
   180  181  182 1   
   181  181  183 1   
   182  184  185 1   
   183  184  186 1   
   184  187  188 1   
   185  187  189 1   
   186  190  191 1   
   187  190  192 1   
@<TRIPOS>SUBSTRUCTURE
     1 MOL         1 TEMP              0 ****  ****    0 ROOT
