@<TRIPOS>MOLECULE
MOL
  186   183     1     0     0
SMALL
resp


@<TRIPOS>ATOM
      1 C1        -11.9390    5.8070    3.2530 c3        1 MOL     -0.748911
      2 C2        -11.8710    4.6680    2.1700 c         1 MOL      0.724071
      3 O1        -12.6150    3.7250    2.1690 o         1 MOL     -0.553631
      4 H1        -11.4810    6.7130    2.8560 hc        1 MOL      0.195741
      5 H2        -12.9800    6.0080    3.5040 hc        1 MOL      0.195741
      6 H3        -11.4020    5.4910    4.1480 hc        1 MOL      0.195741
      7 N1        -11.0020    4.8810    1.1160 n         1 MOL      0.022122
      8 C3        -10.7960    4.0480   -0.0190 c3        1 MOL     -1.435857
      9 C4         -9.8760    2.8780    0.1580 c         1 MOL      0.902320
     10 O2         -8.8000    2.9730    0.7260 o         1 MOL     -0.754326
     11 C5        -10.3060    4.9280   -1.2230 c3        1 MOL      0.969659
     12 C6         -9.1870    5.9780   -1.0830 c         1 MOL      0.300765
     13 O3         -9.1770    6.8120   -2.0480 o         1 MOL     -0.632803
     14 O4         -8.5760    6.1400    0.0200 o         1 MOL     -0.632803
     15 H4        -10.5020    5.7570    1.0620 hn        1 MOL      0.120238
     16 H5        -11.8060    3.7060   -0.2370 h1        1 MOL      0.328141
     17 H6        -11.2090    5.4350   -1.5700 hc        1 MOL     -0.097834
     18 H7        -10.0650    4.3240   -2.0920 hc        1 MOL     -0.097834
     19 N2        -10.2040    1.7610   -0.4790 n         1 MOL     -0.158117
     20 C7         -9.5520    0.3980   -0.4110 c3        1 MOL     -0.121902
     21 C8         -8.2510    0.3280   -1.1640 c         1 MOL      0.550250
     22 O5         -8.1320   -0.3510   -2.1510 o         1 MOL     -0.507041
     23 C9        -10.5770   -0.7500   -0.6360 c3        1 MOL     -0.095294
     24 C10       -10.1800   -2.0780    0.0500 c3        1 MOL      0.250917
     25 C11       -11.3430   -3.0900   -0.1290 c3        1 MOL      0.085277
     26 C12       -10.9340   -4.6000    0.0890 c3        1 MOL     -0.064373
     27 N3        -10.7320   -4.8890    1.5230 n4        1 MOL     -0.283640
     28 H8        -11.1040    1.7660   -0.9360 hn        1 MOL      0.209935
     29 H9         -9.2610    0.3520    0.6390 h1        1 MOL      0.053855
     30 H10       -10.7220   -0.9830   -1.6900 hc        1 MOL      0.057300
     31 H11       -11.5030   -0.3630   -0.2120 hc        1 MOL      0.057300
     32 H12       -10.0320   -1.9630    1.1240 hc        1 MOL     -0.071058
     33 H13        -9.2790   -2.4490   -0.4440 hc        1 MOL     -0.071058
     34 H14       -11.8230   -2.9040   -1.0930 hc        1 MOL     -0.033996
     35 H15       -12.0540   -2.7330    0.6230 hc        1 MOL     -0.033996
     36 H16       -10.0530   -4.8680   -0.5050 hx        1 MOL      0.104418
     37 H17       -11.8240   -5.1120   -0.2760 hx        1 MOL      0.104418
     38 H18       -10.5030   -5.8550    1.6900 hn        1 MOL      0.294493
     39 H19        -9.8730   -4.4040    1.7520 hn        1 MOL      0.294493
     40 H20       -11.4460   -4.5930    2.1670 hn        1 MOL      0.294493
     41 N4         -7.3010    1.1610   -0.7710 n         1 MOL     -0.255314
     42 C13        -5.9040    1.1520   -1.2840 c3        1 MOL     -0.235861
     43 C14        -4.9980    1.6220   -0.0710 c         1 MOL      0.411973
     44 O6         -5.3610    2.5470    0.5990 o         1 MOL     -0.630062
     45 C15        -5.7800    2.0440   -2.5430 c3        1 MOL     -0.431247
     46 C16        -6.7440    3.2610   -2.6160 c         1 MOL      0.587908
     47 O7         -7.4180    3.4460   -3.6430 o         1 MOL     -0.597892
     48 O8         -6.7310    4.0840   -1.6290 o         1 MOL     -0.597892
     49 H21        -7.5530    1.8850   -0.1240 hn        1 MOL      0.304864
     50 H22        -5.6410    0.1390   -1.5930 h1        1 MOL      0.127569
     51 H23        -6.0750    1.3790   -3.3620 hc        1 MOL      0.179857
     52 H24        -4.7640    2.3000   -2.8220 hc        1 MOL      0.179857
     53 N5         -3.8350    1.0640    0.1880 n         1 MOL     -0.160673
     54 C17        -3.3740   -0.2810   -0.2850 c3        1 MOL     -0.295298
     55 C18        -4.2600   -1.3890    0.3480 c         1 MOL      0.653005
     56 O9         -4.6840   -1.3080    1.5260 o         1 MOL     -0.573881
     57 H25        -3.1500    1.6960    0.5730 hn        1 MOL      0.249414
     58 H26        -2.4110   -0.5260    0.1530 h1        1 MOL      0.129653
     59 H27        -3.5260   -0.4510   -1.3470 h1        1 MOL      0.129653
     60 N6         -4.5330   -2.3930   -0.4170 n         1 MOL     -0.284606
     61 C19        -5.3290   -3.5820   -0.0950 c3        1 MOL     -0.052638
     62 C20        -4.4040   -4.8340   -0.1970 c         1 MOL      0.591409
     63 O10        -4.3420   -5.5510    0.7590 o         1 MOL     -0.493025
     64 C21        -6.5020   -3.7640   -1.0320 c3        1 MOL     -0.165538
     65 C22        -7.5600   -4.7920   -0.6160 c         1 MOL      0.827243
     66 O11        -7.6470   -5.0970    0.5880 o         1 MOL     -0.723476
     67 O12        -8.2720   -5.3470   -1.4870 o         1 MOL     -0.723476
     68 H28        -4.0120   -2.3690   -1.2820 hn        1 MOL      0.182982
     69 H29        -5.6980   -3.6100    0.9280 h1        1 MOL      0.067771
     70 H30        -6.1600   -3.9300   -2.0580 hc        1 MOL      0.019329
     71 H31        -7.0240   -2.8120   -1.1160 hc        1 MOL      0.019329
     72 N7         -3.7660   -5.0180   -1.3460 n         1 MOL     -0.300014
     73 C23        -2.9270   -6.1250   -1.6750 c3        1 MOL     -0.358315
     74 C24        -1.4860   -6.0250   -1.1050 c         1 MOL      0.577435
     75 O13        -0.6890   -6.9190   -1.2000 o         1 MOL     -0.533056
     76 H32        -3.8520   -4.3020   -2.0500 hn        1 MOL      0.295061
     77 H33        -2.9500   -6.1930   -2.7670 h1        1 MOL      0.165570
     78 H34        -3.4450   -7.0260   -1.3470 h1        1 MOL      0.165570
     79 N8         -1.1520   -4.8650   -0.5360 n         1 MOL     -0.298718
     80 C25         0.1190   -4.4890    0.1570 c3        1 MOL     -0.086784
     81 C26         0.5040   -3.0970   -0.0920 c         1 MOL      0.552209
     82 O14        -0.4180   -2.2850   -0.3480 o         1 MOL     -0.542786
     83 C27        -0.0150   -4.7300    1.6420 c3        1 MOL      0.436385
     84 C28        -1.3120   -4.1540    2.2540 c3        1 MOL     -0.171136
     85 O15        -0.0280   -6.0650    1.9690 oh        1 MOL     -0.604462
     86 H35        -1.9240   -4.2200   -0.5060 hn        1 MOL      0.121477
     87 H36         0.8540   -5.2130   -0.1800 h1        1 MOL      0.113622
     88 H37         0.8090   -4.2460    2.1550 h1        1 MOL     -0.078920
     89 H38        -0.5370   -6.1230    2.7770 ho        1 MOL      0.382969
     90 H39        -1.1570   -3.9290    3.3040 hc        1 MOL      0.037491
     91 H40        -1.5060   -3.1780    1.8140 hc        1 MOL      0.037491
     92 H41        -2.1790   -4.7950    2.1070 hc        1 MOL      0.037491
     93 N9          1.8480   -2.8000    0.0240 n         1 MOL     -0.492051
     94 C29         2.4460   -1.5020    0.0080 c3        1 MOL      0.067053
     95 C30         3.9040   -1.4710   -0.5000 c         1 MOL      0.566422
     96 O16         4.2690   -0.5880   -1.2620 o         1 MOL     -0.520519
     97 C31         2.5130   -0.9090    1.4540 c3        1 MOL      0.084394
     98 C32         1.2940   -1.1510    2.3650 c3        1 MOL     -0.067712
     99 C33         2.8300    0.5820    1.4390 c3        1 MOL     -0.357996
    100 C34         1.3600   -0.3540    3.6840 c3        1 MOL     -0.204000
    101 H42         2.4770   -3.5840    0.1450 hn        1 MOL      0.267033
    102 H43         1.9480   -0.7620   -0.6130 h1        1 MOL      0.083072
    103 H44         3.3520   -1.3740    1.9800 hc        1 MOL      0.013107
    104 H45         1.2700   -2.2100    2.6250 hc        1 MOL      0.066081
    105 H46         0.4450   -0.7850    1.7850 hc        1 MOL      0.066081
    106 H47         1.8840    1.1070    1.2920 hc        1 MOL      0.104223
    107 H48         3.2660    0.8010    2.4160 hc        1 MOL      0.104223
    108 H49         3.5590    0.9020    0.7040 hc        1 MOL      0.104223
    109 H50         0.7740    0.5600    3.6410 hc        1 MOL      0.056021
    110 H51         0.8160   -0.9280    4.4450 hc        1 MOL      0.056021
    111 H52         2.3610   -0.1320    4.0490 hc        1 MOL      0.056021
    112 N10         4.7050   -2.5320   -0.1960 n         1 MOL     -0.473177
    113 C35         6.0490   -2.7920   -0.6760 c3        1 MOL     -0.046697
    114 C36         7.0910   -2.9890    0.4450 c         1 MOL      0.522737
    115 O17         6.7900   -3.7860    1.3230 o         1 MOL     -0.540897
    116 C37         6.0680   -4.0510   -1.6260 c3        1 MOL      0.447862
    117 C38         5.0780   -3.9340   -2.8630 c3        1 MOL     -0.318287
    118 O18         7.3260   -4.1800   -2.1960 oh        1 MOL     -0.649156
    119 H53         4.3330   -3.1150    0.5440 hn        1 MOL      0.253712
    120 H54         6.3290   -1.9160   -1.2610 h1        1 MOL      0.130385
    121 H55         5.8420   -4.9630   -1.0840 h1        1 MOL     -0.028585
    122 H56         7.1720   -4.9570   -2.7490 ho        1 MOL      0.395585
    123 H57         5.1450   -4.9000   -3.3470 hc        1 MOL      0.078556
    124 H58         4.0800   -3.8300   -2.4240 hc        1 MOL      0.078556
    125 H59         5.4580   -3.1030   -3.4560 hc        1 MOL      0.078556
    126 N11         8.1730   -2.2580    0.4370 n         1 MOL     -0.287676
    127 C39         9.2670   -2.2540    1.4670 c3        1 MOL     -0.320981
    128 C40        10.0770   -1.0010    1.3430 c         1 MOL      0.764208
    129 O19        10.7260   -0.5450    2.2740 o         1 MOL     -0.569462
    130 C41        10.0850   -3.5570    1.3940 c3        1 MOL      0.362469
    131 C42        11.1770   -3.6070    2.4730 c3        1 MOL     -0.519237
    132 O20        10.6830   -3.6510    0.1120 oh        1 MOL     -0.621216
    133 H60         8.2100   -1.6850   -0.3810 hn        1 MOL      0.209357
    134 H61         8.8620   -2.4320    2.4570 h1        1 MOL      0.177972
    135 H62         9.4050   -4.4010    1.5060 h1        1 MOL      0.064667
    136 H63        11.1960   -4.4740    0.1560 ho        1 MOL      0.391278
    137 H64        11.8220   -2.7430    2.3090 hc        1 MOL      0.140973
    138 H65        10.7450   -3.6140    3.4750 hc        1 MOL      0.140973
    139 H66        11.7390   -4.5420    2.5170 hc        1 MOL      0.140973
    140 N12        10.1430   -0.3030    0.1700 n         1 MOL     -0.615648
    141 C43        10.8780    0.9390   -0.1930 c3        1 MOL      0.011709
    142 C44        10.0830    1.9810   -0.9860 c         1 MOL      0.421564
    143 O21         9.6550    1.7340   -2.1210 o         1 MOL     -0.470572
    144 C45        12.1370    0.4810   -0.9440 c3        1 MOL     -0.336521
    145 C46        13.1980    1.6750   -1.0610 c3        1 MOL      0.430422
    146 C47        14.5780    1.3010   -1.4530 c3        1 MOL     -0.102899
    147 C48        15.3000    0.4460   -0.3900 c3        1 MOL     -0.021385
    148 N13        15.6990    1.2200    0.7590 n4        1 MOL     -0.151435
    149 H67         9.7680   -0.8070   -0.6320 hn        1 MOL      0.378703
    150 H68        11.2400    1.3440    0.7490 h1        1 MOL      0.098592
    151 H69        11.8710    0.1450   -1.9390 hc        1 MOL      0.123333
    152 H70        12.5120   -0.3890   -0.3920 hc        1 MOL      0.123333
    153 H71        13.2450    2.1070   -0.0610 hc        1 MOL     -0.123927
    154 H72        12.8200    2.4760   -1.6950 hc        1 MOL     -0.123927
    155 H73        15.1860    2.2020   -1.5890 hc        1 MOL      0.058163
    156 H74        14.4370    0.7530   -2.3850 hc        1 MOL      0.058163
    157 H75        16.2150    0.1180   -0.8850 hx        1 MOL      0.066978
    158 H76        14.7100   -0.3750    0.0170 hx        1 MOL      0.066978
    159 H77        16.6820    1.1490    0.9710 hn        1 MOL      0.240149
    160 H78        15.5260    2.2060    0.6350 hn        1 MOL      0.240149
    161 H79        15.2170    0.8880    1.5830 hn        1 MOL      0.240149
    162 N14         9.8830    3.1420   -0.3100 n         1 MOL     -0.221467
    163 C49         9.1780    4.2630   -0.9090 c3        1 MOL      0.207809
    164 C50         7.6560    4.0530   -1.0150 c         1 MOL      0.415192
    165 O22         7.1860    3.9430   -2.1640 o         1 MOL     -0.508222
    166 C51         9.6550    5.5930   -0.2800 c3        1 MOL      0.066187
    167 C52        11.1510    5.9930   -0.5800 c3        1 MOL     -0.308247
    168 C53        11.6350    7.1160    0.3010 c         1 MOL      0.731111
    169 O23        12.0540    6.9350    1.4690 o         1 MOL     -0.682353
    170 O24        11.6430    8.2530   -0.1710 o         1 MOL     -0.682353
    171 H80        10.4920    3.2190    0.4980 hn        1 MOL      0.215681
    172 H81         9.4780    4.3060   -1.9560 h1        1 MOL      0.012604
    173 H82         9.5190    5.4130    0.7870 hc        1 MOL      0.010508
    174 H83         8.9730    6.3810   -0.5700 hc        1 MOL      0.010508
    175 H84        11.2370    6.3430   -1.6130 hc        1 MOL      0.060037
    176 H85        11.7600    5.0930   -0.4290 hc        1 MOL      0.060037
    177 N15         6.8160    4.0530    0.0630 n         1 MOL     -0.456893
    178 C54         7.1340    3.9660    1.5310 c3        1 MOL      0.042456
    179 H86         7.2450    4.9710    1.9380 h1        1 MOL      0.024275
    180 H87         6.3230    3.4530    2.0490 h1        1 MOL      0.024275
    181 H88         8.0620    3.4130    1.6700 h1        1 MOL      0.024275
    182 H89         5.8210    3.9320   -0.0690 hn        1 MOL      0.312062
    183 Ca1        -6.3910    4.9930    0.7240 Ca        1 MOL      1.681024
    184 O25        -7.6340    3.7950    2.7680 oh        1 MOL     -0.886481
    185 H90        -8.2280    3.1540    2.3720 ho        1 MOL      0.437016
    186 H91        -7.8510    3.7670    3.7070 ho        1 MOL      0.437016
@<TRIPOS>BOND
     1    1    2 1   
     2    1    4 1   
     3    1    5 1   
     4    1    6 1   
     5    2    3 2   
     6    2    7 1   
     7    7    8 1   
     8    7   15 1   
     9    8    9 1   
    10    8   11 1   
    11    8   16 1   
    12    9   10 2   
    13    9   19 1   
    14   11   12 1   
    15   11   17 1   
    16   11   18 1   
    17   12   13 1   
    18   12   14 1   
    19   19   20 1   
    20   19   28 1   
    21   20   21 1   
    22   20   23 1   
    23   20   29 1   
    24   21   22 2   
    25   21   41 1   
    26   23   24 1   
    27   23   30 1   
    28   23   31 1   
    29   24   25 1   
    30   24   32 1   
    31   24   33 1   
    32   25   26 1   
    33   25   34 1   
    34   25   35 1   
    35   26   27 1   
    36   26   36 1   
    37   26   37 1   
    38   27   38 1   
    39   27   39 1   
    40   27   40 1   
    41   41   42 1   
    42   41   49 1   
    43   42   43 1   
    44   42   45 1   
    45   42   50 1   
    46   43   44 2   
    47   43   53 1   
    48   45   46 1   
    49   45   51 1   
    50   45   52 1   
    51   46   47 1   
    52   46   48 1   
    53   53   54 1   
    54   53   57 1   
    55   54   55 1   
    56   54   58 1   
    57   54   59 1   
    58   55   56 2   
    59   55   60 1   
    60   60   61 1   
    61   60   68 1   
    62   61   62 1   
    63   61   64 1   
    64   61   69 1   
    65   62   63 2   
    66   62   72 1   
    67   64   65 1   
    68   64   70 1   
    69   64   71 1   
    70   65   66 1   
    71   65   67 1   
    72   72   73 1   
    73   72   76 1   
    74   73   74 1   
    75   73   77 1   
    76   73   78 1   
    77   74   75 2   
    78   74   79 1   
    79   79   80 1   
    80   79   86 1   
    81   80   81 1   
    82   80   83 1   
    83   80   87 1   
    84   81   82 2   
    85   81   93 1   
    86   83   84 1   
    87   83   85 1   
    88   83   88 1   
    89   84   90 1   
    90   84   91 1   
    91   84   92 1   
    92   85   89 1   
    93   93   94 1   
    94   93  101 1   
    95   94   95 1   
    96   94   97 1   
    97   94  102 1   
    98   95   96 2   
    99   95  112 1   
   100   97   98 1   
   101   97   99 1   
   102   97  103 1   
   103   98  100 1   
   104   98  104 1   
   105   98  105 1   
   106   99  106 1   
   107   99  107 1   
   108   99  108 1   
   109  100  109 1   
   110  100  110 1   
   111  100  111 1   
   112  112  113 1   
   113  112  119 1   
   114  113  114 1   
   115  113  116 1   
   116  113  120 1   
   117  114  115 2   
   118  114  126 1   
   119  116  117 1   
   120  116  118 1   
   121  116  121 1   
   122  117  123 1   
   123  117  124 1   
   124  117  125 1   
   125  118  122 1   
   126  126  127 1   
   127  126  133 1   
   128  127  128 1   
   129  127  130 1   
   130  127  134 1   
   131  128  129 2   
   132  128  140 1   
   133  130  131 1   
   134  130  132 1   
   135  130  135 1   
   136  131  137 1   
   137  131  138 1   
   138  131  139 1   
   139  132  136 1   
   140  140  141 1   
   141  140  149 1   
   142  141  142 1   
   143  141  144 1   
   144  141  150 1   
   145  142  143 2   
   146  142  162 1   
   147  144  145 1   
   148  144  151 1   
   149  144  152 1   
   150  145  146 1   
   151  145  153 1   
   152  145  154 1   
   153  146  147 1   
   154  146  155 1   
   155  146  156 1   
   156  147  148 1   
   157  147  157 1   
   158  147  158 1   
   159  148  159 1   
   160  148  160 1   
   161  148  161 1   
   162  162  163 1   
   163  162  171 1   
   164  163  164 1   
   165  163  166 1   
   166  163  172 1   
   167  164  165 2   
   168  164  177 1   
   169  166  167 1   
   170  166  173 1   
   171  166  174 1   
   172  167  168 1   
   173  167  175 1   
   174  167  176 1   
   175  168  169 1   
   176  168  170 1   
   177  177  178 1   
   178  177  182 1   
   179  178  179 1   
   180  178  180 1   
   181  178  181 1   
   182  184  185 1   
   183  184  186 1   
@<TRIPOS>SUBSTRUCTURE
     1 MOL         1 TEMP              0 ****  ****    0 ROOT
