@<TRIPOS>MOLECULE
MOL
  181   177     1     0     0
SMALL
resp


@<TRIPOS>ATOM
      1 C1          4.9490   -6.4920    3.7020 c3        1 MOL     -0.220312
      2 C2          4.1450   -5.4530    2.8270 c         1 MOL      0.698165
      3 O1          2.9790   -5.1630    3.0630 o         1 MOL     -0.565463
      4 H1          4.5360   -6.5130    4.7110 hc        1 MOL      0.045067
      5 H2          4.8670   -7.4830    3.2560 hc        1 MOL      0.045067
      6 H3          5.9980   -6.1980    3.7450 hc        1 MOL      0.045067
      7 N1          4.7630   -4.8740    1.7850 n         1 MOL     -0.519353
      8 C3          6.0960   -4.9490    1.3280 c3        1 MOL      0.010552
      9 C4          6.2490   -4.5250   -0.1630 c         1 MOL      0.496640
     10 O2          5.2900   -4.4480   -0.8920 o         1 MOL     -0.381093
     11 C5          6.9090   -4.0670    2.1900 c3        1 MOL     -0.156731
     12 C6          6.6530   -2.5730    2.0330 c         1 MOL      0.773512
     13 O3          7.3520   -1.9420    1.2300 o         1 MOL     -0.733090
     14 O4          5.6460   -2.0820    2.5920 o         1 MOL     -0.733090
     15 H4          4.1370   -4.2940    1.2340 hn        1 MOL      0.324422
     16 H5          6.4050   -5.9850    1.4270 h1        1 MOL      0.081852
     17 H6          7.9710   -4.1980    1.9610 hc        1 MOL     -0.003542
     18 H7          6.7400   -4.3030    3.2390 hc        1 MOL     -0.003542
     19 N2          7.4460   -4.3570   -0.6950 n         1 MOL     -0.635612
     20 C7          7.7550   -4.2140   -2.1240 c3        1 MOL      0.365800
     21 C8          6.9500   -3.0700   -2.8420 c         1 MOL      0.244864
     22 O5          6.6940   -3.1600   -4.0520 o         1 MOL     -0.488814
     23 C9          7.5700   -5.5880   -2.7080 c3        1 MOL     -0.213901
     24 H8          8.2440   -4.6560   -0.1630 hn        1 MOL      0.324265
     25 H9          8.7990   -3.9310   -2.2780 h1        1 MOL     -0.008958
     26 H10         8.1920   -6.2880   -2.1650 hc        1 MOL      0.052315
     27 H11         6.5380   -5.9220   -2.6620 hc        1 MOL      0.052315
     28 H12         8.0110   -5.5570   -3.7090 hc        1 MOL      0.052315
     29 N3          6.5540   -2.0330   -2.0820 n         1 MOL      0.004800
     30 C10         5.9770   -0.8170   -2.6600 c3        1 MOL     -0.157936
     31 C11         6.5540    0.4380   -1.9890 c         1 MOL      0.325681
     32 O6          6.8000    0.4110   -0.8070 o         1 MOL     -0.480384
     33 C12         4.4170   -0.8320   -2.6450 c3        1 MOL      0.027278
     34 C13         3.8540   -1.2480   -1.2530 c         1 MOL      0.523657
     35 O7          2.7150   -1.7750   -1.3960 o         1 MOL     -0.606848
     36 O8          4.3720   -1.0290   -0.1180 o         1 MOL     -0.606848
     37 H13         6.7350   -1.9880   -1.0900 hn        1 MOL      0.111970
     38 H14         6.2010   -0.6890   -3.7240 h1        1 MOL      0.034103
     39 H15         4.1600   -1.5930   -3.3800 hc        1 MOL      0.034677
     40 H16         3.9600    0.1410   -2.8660 hc        1 MOL      0.034677
     41 N4          6.9640    1.4720   -2.7480 n         1 MOL     -0.166619
     42 C14         7.6910    2.7160   -2.3410 c3        1 MOL     -0.523641
     43 C15         6.9190    3.7560   -1.4050 c         1 MOL      0.667267
     44 O9          7.4480    4.7950   -1.0730 o         1 MOL     -0.557450
     45 H17         6.7860    1.3970   -3.7360 hn        1 MOL      0.247001
     46 H18         8.1430    3.1070   -3.2530 h1        1 MOL      0.199508
     47 H19         8.5050    2.3490   -1.7090 h1        1 MOL      0.199508
     48 N5          5.5920    3.4850   -1.1780 n         1 MOL     -0.558769
     49 C16         4.5810    4.3150   -0.5820 c3        1 MOL      0.432628
     50 C17         3.7570    3.4510    0.4360 c         1 MOL      0.398098
     51 O10         4.0480    2.2790    0.6140 o         1 MOL     -0.608114
     52 C18         3.7810    5.0050   -1.7290 c3        1 MOL     -0.248988
     53 C19         3.1410    6.2650   -1.2250 c         1 MOL      0.665396
     54 N6          2.8680    7.1090   -2.2630 n         1 MOL     -0.835296
     55 O11         2.7160    6.4600   -0.1180 o         1 MOL     -0.526138
     56 H20         5.2310    2.6920   -1.6820 hn        1 MOL      0.297963
     57 H21         5.0710    5.0730    0.0240 h1        1 MOL     -0.030022
     58 H22         2.9890    4.3630   -2.1000 hc        1 MOL      0.061571
     59 H23         4.4490    5.1670   -2.5800 hc        1 MOL      0.061571
     60 H24         3.0980    6.8410   -3.2030 hn        1 MOL      0.383897
     61 H25         2.3470    7.9600   -2.0790 hn        1 MOL      0.383897
     62 N7          2.8150    4.0110    1.1880 n         1 MOL     -0.204453
     63 C20         2.0930    3.4140    2.2600 c3        1 MOL     -0.356255
     64 C21         1.1300    2.3320    1.9460 c         1 MOL      0.652328
     65 O12         0.9090    1.3760    2.6880 o         1 MOL     -0.545444
     66 H26         2.5950    4.9660    0.9820 hn        1 MOL      0.185585
     67 H27         1.5990    4.2100    2.8200 h1        1 MOL      0.151241
     68 H28         2.8220    2.9760    2.9400 h1        1 MOL      0.151241
     69 N8          0.3430    2.4110    0.9270 n         1 MOL     -0.415561
     70 C22        -0.0320    3.5280    0.0640 c3        1 MOL      0.029054
     71 C23        -1.4210    4.0390    0.3460 c         1 MOL      0.292016
     72 O13        -1.6240    5.1900    0.0080 o         1 MOL     -0.476786
     73 C24         0.0360    2.9700   -1.3290 c3        1 MOL      0.261420
     74 C25        -0.2920    3.7760   -2.6210 c3        1 MOL     -0.712406
     75 O14         1.3500    2.5500   -1.5610 oh        1 MOL     -0.579012
     76 H29        -0.3210    1.6490    0.9730 hn        1 MOL      0.256055
     77 H30         0.7070    4.3220    0.2010 h1        1 MOL      0.161522
     78 H31        -0.5690    2.0660   -1.4000 h1        1 MOL      0.055701
     79 H32         1.3500    1.7330   -2.0600 ho        1 MOL      0.441857
     80 H33         0.4510    4.5580   -2.7110 hc        1 MOL      0.201908
     81 H34        -0.2770    3.0570   -3.4490 hc        1 MOL      0.201908
     82 H35        -1.2650    4.2300   -2.4310 hc        1 MOL      0.201908
     83 N9         -2.2860    3.1340    0.8910 n         1 MOL     -0.203574
     84 C26        -3.6410    3.4120    1.2940 c3        1 MOL      0.133478
     85 C27        -4.4940    4.0510    0.1980 c         1 MOL      0.438263
     86 O15        -4.9030    5.2410    0.2530 o         1 MOL     -0.534972
     87 C28        -3.5530    4.1570    2.6250 c3        1 MOL      0.279786
     88 C29        -2.5760    3.6880    3.6870 c3        1 MOL     -0.034401
     89 C30        -4.9380    4.0940    3.2880 c3        1 MOL     -0.380841
     90 C31        -2.5920    2.1640    4.0450 c3        1 MOL     -0.306325
     91 H36        -1.9210    2.1820    0.9220 hn        1 MOL      0.207787
     92 H37        -4.0570    2.4360    1.5430 h1        1 MOL      0.016479
     93 H38        -3.3680    5.2100    2.4310 hc        1 MOL     -0.034991
     94 H39        -2.8520    4.1930    4.6070 hc        1 MOL     -0.000581
     95 H40        -1.5830    4.0490    3.4240 hc        1 MOL     -0.000581
     96 H41        -4.8810    4.8900    4.0310 hc        1 MOL      0.075705
     97 H42        -5.6470    4.2720    2.4740 hc        1 MOL      0.075705
     98 H43        -5.0910    3.1240    3.7730 hc        1 MOL      0.075705
     99 H44        -1.7480    2.0130    4.7240 hc        1 MOL      0.086367
    100 H45        -3.5590    1.9740    4.4980 hc        1 MOL      0.086367
    101 H46        -2.5380    1.4930    3.1810 hc        1 MOL      0.086367
    102 N10        -4.6760    3.3100   -0.9310 n         1 MOL     -0.333924
    103 C32        -4.3940    1.8850   -1.1120 c3        1 MOL      0.113307
    104 C33        -5.3230    0.9940   -0.2980 c         1 MOL      0.413230
    105 O16        -4.9470    0.2820    0.6320 o         1 MOL     -0.502295
    106 C34        -4.2030    1.4010   -2.5650 c3        1 MOL     -0.497586
    107 C35        -5.4410    1.6540   -3.4720 c         1 MOL      0.773447
    108 O17        -5.4410    1.1050   -4.5750 o         1 MOL     -0.682262
    109 O18        -6.4450    2.3360   -3.1910 o         1 MOL     -0.682262
    110 H47        -5.3200    3.7430   -1.5760 hn        1 MOL      0.240300
    111 H48        -3.4810    1.5460   -0.6250 h1        1 MOL      0.028494
    112 H49        -4.1090    0.3130   -2.4900 hc        1 MOL      0.153449
    113 H50        -3.2840    1.7880   -2.9910 hc        1 MOL      0.153449
    114 N11        -6.5890    0.9940   -0.6850 n         1 MOL     -0.480679
    115 C36        -7.6190    0.1180   -0.0910 c3        1 MOL      0.410001
    116 C37        -8.3420   -0.6120   -1.2340 c         1 MOL      0.529635
    117 O19        -8.9250    0.0670   -2.0600 o         1 MOL     -0.523434
    118 C38        -8.6110    0.9340    0.7620 c3        1 MOL     -0.316657
    119 C39        -9.6000   -0.0730    1.3530 ca        1 MOL      0.074033
    120 C40       -10.8830   -0.2230    0.7760 ca        1 MOL     -0.155119
    121 C41        -9.2670   -0.9240    2.3800 ca        1 MOL     -0.155119
    122 C42       -11.8150   -1.1640    1.2310 ca        1 MOL     -0.100885
    123 C43       -10.1680   -1.8760    2.8980 ca        1 MOL     -0.100885
    124 C44       -11.4360   -1.9830    2.3130 ca        1 MOL     -0.162378
    125 H51        -6.8290    1.5730   -1.4790 hn        1 MOL      0.260087
    126 H52        -7.2340   -0.5890    0.6340 h1        1 MOL     -0.081829
    127 H53        -9.0530    1.7130    0.1410 hc        1 MOL      0.111322
    128 H54        -8.0650    1.4120    1.5800 hc        1 MOL      0.111322
    129 H55       -11.2600    0.4130   -0.0070 ha        1 MOL      0.112970
    130 H56        -8.2770   -0.7280    2.7720 ha        1 MOL      0.112970
    131 H57       -12.8040   -1.2520    0.8040 ha        1 MOL      0.102273
    132 H58        -9.8820   -2.5640    3.6800 ha        1 MOL      0.102273
    133 H59       -12.1030   -2.7800    2.6100 ha        1 MOL      0.099683
    134 N12        -8.1760   -1.9420   -1.3930 n         1 MOL     -0.331267
    135 C45        -7.2630   -2.8260   -0.6350 c3        1 MOL      0.428989
    136 C46        -5.8030   -2.5510   -0.8720 c         1 MOL      0.356254
    137 O20        -5.4170   -1.8410   -1.8160 o         1 MOL     -0.438405
    138 C47        -7.6440   -4.2670   -1.0920 c3        1 MOL     -0.416411
    139 C48        -9.0810   -4.1280   -1.6550 c3        1 MOL      0.242509
    140 C49        -9.1120   -2.6970   -2.1830 c3        1 MOL      0.220656
    141 H60        -7.5040   -2.7610    0.4240 h1        1 MOL     -0.060443
    142 H61        -6.9530   -4.6180   -1.8540 hc        1 MOL      0.097922
    143 H62        -7.6240   -4.9700   -0.2570 hc        1 MOL      0.097922
    144 H63        -9.4400   -4.8130   -2.4300 hc        1 MOL     -0.070311
    145 H64        -9.7320   -4.1400   -0.7850 hc        1 MOL     -0.070311
    146 H65        -8.9280   -2.6090   -3.2510 h1        1 MOL     -0.028570
    147 H66       -10.1240   -2.3320   -2.0060 h1        1 MOL     -0.028570
    148 N13        -4.9910   -3.1570   -0.0340 n         1 MOL     -0.422469
    149 C50        -3.6430   -2.6960    0.2210 c3        1 MOL      0.263552
    150 C51        -3.0330   -3.4600    1.4180 c         1 MOL      0.287437
    151 O21        -2.1550   -4.3140    1.2980 o         1 MOL     -0.451926
    152 C52        -2.6690   -2.7870   -0.9520 c3        1 MOL      0.005713
    153 C53        -2.9090   -4.0730   -1.7590 c3        1 MOL     -0.173409
    154 C54        -1.8040   -4.1650   -2.8480 c         1 MOL      0.757712
    155 O22        -1.5110   -5.3350   -3.2670 o         1 MOL     -0.701144
    156 O23        -1.2160   -3.1310   -3.2390 o         1 MOL     -0.701144
    157 H67        -5.4710   -3.8170    0.5550 hn        1 MOL      0.237937
    158 H68        -3.6830   -1.6570    0.5460 h1        1 MOL     -0.031601
    159 H69        -1.6520   -2.8720   -0.5730 hc        1 MOL      0.048071
    160 H70        -2.8260   -1.8860   -1.5390 hc        1 MOL      0.048071
    161 H71        -3.9070   -4.2260   -2.1630 hc        1 MOL      0.004661
    162 H72        -2.7310   -4.8730   -1.0460 hc        1 MOL      0.004661
    163 N14        -3.6250   -3.3500    2.6410 n         1 MOL     -0.262825
    164 C55        -4.7110   -2.4840    3.1380 c3        1 MOL     -0.088943
    165 H73        -4.5400   -1.4600    2.8060 h1        1 MOL      0.052491
    166 H74        -5.6650   -2.8370    2.7490 h1        1 MOL      0.052491
    167 H75        -4.7290   -2.5130    4.2280 h1        1 MOL      0.052491
    168 H76        -3.2160   -4.0350    3.2450 hn        1 MOL      0.223598
    169 Ca1         5.6990    0.3120    1.5580 Ca        1 MOL      1.740573
    170 O24         6.0760    2.6860    2.8970 oh        1 MOL     -0.799985
    171 H77         5.6020    3.4230    3.2700 ho        1 MOL      0.371333
    172 H78         6.9860    2.9770    2.8520 ho        1 MOL      0.371333
    173 O25         8.3440    1.9760    1.4120 oh        1 MOL     -0.799985
    174 H79         8.8370    2.7980    1.4740 ho        1 MOL      0.371333
    175 H80         9.0120    1.2980    1.3050 ho        1 MOL      0.371333
    176 O26         7.5660    0.1070    3.7810 oh        1 MOL     -0.799985
    177 H81         8.1030   -0.6240    4.0800 ho        1 MOL      0.371333
    178 H82         8.0340    0.8910    4.0570 ho        1 MOL      0.371333
    179 O27         3.4470    0.4390    3.1860 oh        1 MOL     -0.799985
    180 H83         2.5450    0.7870    3.1760 ho        1 MOL      0.371333
    181 H84         3.6500    0.3430    4.1150 ho        1 MOL      0.371333
@<TRIPOS>BOND
     1    1    2 1   
     2    1    4 1   
     3    1    5 1   
     4    1    6 1   
     5    2    3 2   
     6    2    7 1   
     7    7    8 1   
     8    7   15 1   
     9    8    9 1   
    10    8   11 1   
    11    8   16 1   
    12    9   10 2   
    13    9   19 1   
    14   11   12 1   
    15   11   17 1   
    16   11   18 1   
    17   12   13 1   
    18   12   14 1   
    19   19   20 1   
    20   19   24 1   
    21   20   21 1   
    22   20   23 1   
    23   20   25 1   
    24   21   22 2   
    25   21   29 1   
    26   23   26 1   
    27   23   27 1   
    28   23   28 1   
    29   29   30 1   
    30   29   37 1   
    31   30   31 1   
    32   30   33 1   
    33   30   38 1   
    34   31   32 2   
    35   31   41 1   
    36   33   34 1   
    37   33   39 1   
    38   33   40 1   
    39   34   35 1   
    40   34   36 1   
    41   41   42 1   
    42   41   45 1   
    43   42   43 1   
    44   42   46 1   
    45   42   47 1   
    46   43   44 2   
    47   43   48 1   
    48   48   49 1   
    49   48   56 1   
    50   49   50 1   
    51   49   52 1   
    52   49   57 1   
    53   50   51 2   
    54   50   62 1   
    55   52   53 1   
    56   52   58 1   
    57   52   59 1   
    58   53   54 1   
    59   53   55 2   
    60   54   60 1   
    61   54   61 1   
    62   62   63 1   
    63   62   66 1   
    64   63   64 1   
    65   63   67 1   
    66   63   68 1   
    67   64   65 2   
    68   64   69 1   
    69   69   70 1   
    70   69   76 1   
    71   70   71 1   
    72   70   73 1   
    73   70   77 1   
    74   71   72 2   
    75   71   83 1   
    76   73   74 1   
    77   73   75 1   
    78   73   78 1   
    79   74   80 1   
    80   74   81 1   
    81   74   82 1   
    82   75   79 1   
    83   83   84 1   
    84   83   91 1   
    85   84   85 1   
    86   84   87 1   
    87   84   92 1   
    88   85   86 2   
    89   85  102 1   
    90   87   88 1   
    91   87   89 1   
    92   87   93 1   
    93   88   90 1   
    94   88   94 1   
    95   88   95 1   
    96   89   96 1   
    97   89   97 1   
    98   89   98 1   
    99   90   99 1   
   100   90  100 1   
   101   90  101 1   
   102  102  103 1   
   103  102  110 1   
   104  103  104 1   
   105  103  106 1   
   106  103  111 1   
   107  104  105 2   
   108  104  114 1   
   109  106  107 1   
   110  106  112 1   
   111  106  113 1   
   112  107  108 1   
   113  107  109 1   
   114  114  115 1   
   115  114  125 1   
   116  115  116 1   
   117  115  118 1   
   118  115  126 1   
   119  116  117 2   
   120  116  134 1   
   121  118  119 1   
   122  118  127 1   
   123  118  128 1   
   124  119  120 ar  
   125  119  121 ar  
   126  120  122 ar  
   127  120  129 1   
   128  121  123 ar  
   129  121  130 1   
   130  122  124 ar  
   131  122  131 1   
   132  123  124 ar  
   133  123  132 1   
   134  124  133 1   
   135  134  135 1   
   136  134  140 1   
   137  135  136 1   
   138  135  138 1   
   139  135  141 1   
   140  136  137 2   
   141  136  148 1   
   142  138  139 1   
   143  138  142 1   
   144  138  143 1   
   145  139  140 1   
   146  139  144 1   
   147  139  145 1   
   148  140  146 1   
   149  140  147 1   
   150  148  149 1   
   151  148  157 1   
   152  149  150 1   
   153  149  152 1   
   154  149  158 1   
   155  150  151 2   
   156  150  163 1   
   157  152  153 1   
   158  152  159 1   
   159  152  160 1   
   160  153  154 1   
   161  153  161 1   
   162  153  162 1   
   163  154  155 1   
   164  154  156 1   
   165  163  164 1   
   166  163  168 1   
   167  164  165 1   
   168  164  166 1   
   169  164  167 1   
   170  170  171 1   
   171  170  172 1   
   172  173  174 1   
   173  173  175 1   
   174  176  177 1   
   175  176  178 1   
   176  179  180 1   
   177  179  181 1   
@<TRIPOS>SUBSTRUCTURE
     1 MOL         1 TEMP              0 ****  ****    0 ROOT
