@<TRIPOS>MOLECULE
MOL
  192   187     1     0     0
SMALL
resp


@<TRIPOS>ATOM
      1 C1          0.4380    7.6850   -3.0930 c3        1 MOL     -0.286898
      2 C2          0.8870    6.4720   -2.3110 c         1 MOL      0.611061
      3 O1          1.2430    5.4510   -2.9110 o         1 MOL     -0.567198
      4 H1          1.0790    7.8110   -3.9660 hc        1 MOL      0.072345
      5 H2         -0.5930    7.5470   -3.4170 hc        1 MOL      0.072345
      6 H3          0.5060    8.5710   -2.4610 hc        1 MOL      0.072345
      7 N1          0.7900    6.5110   -0.9930 n         1 MOL     -0.458999
      8 C3          1.0890    5.3250   -0.1930 c3        1 MOL      0.056162
      9 C4         -0.1020    4.3600    0.0480 c         1 MOL      0.392473
     10 O2          0.1760    3.2760    0.5350 o         1 MOL     -0.484436
     11 C5          1.6060    5.7460    1.1990 c3        1 MOL     -0.274910
     12 C6          0.7500    6.6430    2.0390 c         1 MOL      0.832277
     13 O3          0.0520    7.4770    1.4580 o         1 MOL     -0.733574
     14 O4          0.8900    6.7100    3.2870 o         1 MOL     -0.733574
     15 H4          0.3600    7.2780   -0.5090 hn        1 MOL      0.289762
     16 H5          1.8990    4.7460   -0.6290 h1        1 MOL      0.104102
     17 H6          2.5310    6.3120    1.0760 hc        1 MOL      0.063633
     18 H7          1.7320    4.8010    1.7350 hc        1 MOL      0.063633
     19 N2         -1.3130    4.7760   -0.2470 n         1 MOL     -0.239044
     20 C7         -2.5140    4.1430    0.0880 c3        1 MOL      0.331688
     21 C8         -3.0640    3.3200   -1.0910 c         1 MOL      0.367753
     22 O5         -3.1400    3.8640   -2.1910 o         1 MOL     -0.533673
     23 C9         -3.6040    5.1680    0.4170 c3        1 MOL     -0.394922
     24 C10        -3.2030    6.2720    1.4440 c3        1 MOL      0.012177
     25 C11        -2.7090    5.5970    2.6800 c3        1 MOL     -0.068707
     26 C12        -2.6120    6.5510    3.9190 c3        1 MOL     -0.015917
     27 N3         -1.7810    7.7890    3.6510 n4        1 MOL     -0.251959
     28 H8         -1.3500    5.6290   -0.7720 hn        1 MOL      0.214120
     29 H9         -2.3270    3.5250    0.9740 h1        1 MOL      0.028995
     30 H10        -4.3500    4.5080    0.8660 hc        1 MOL      0.122395
     31 H11        -3.9260    5.7050   -0.4790 hc        1 MOL      0.122395
     32 H12        -3.9600    7.0120    1.7000 hc        1 MOL      0.016449
     33 H13        -2.4040    6.8740    1.0110 hc        1 MOL      0.016449
     34 H14        -1.7030    5.2330    2.4900 hc        1 MOL      0.071361
     35 H15        -3.3380    4.7880    3.0560 hc        1 MOL      0.071361
     36 H16        -2.1830    6.0030    4.7550 hx        1 MOL      0.072552
     37 H17        -3.6270    6.8580    4.1230 hx        1 MOL      0.072552
     38 H18        -1.7160    8.3730    4.4730 hn        1 MOL      0.273933
     39 H19        -0.8530    7.4750    3.4080 hn        1 MOL      0.273933
     40 H20        -2.1270    8.2950    2.8440 hn        1 MOL      0.273933
     41 N4         -3.5140    2.0640   -0.9420 n         1 MOL     -0.294175
     42 C13        -3.6500    1.0780    0.1600 c3        1 MOL      0.027400
     43 C14        -4.3970    1.5360    1.3670 c         1 MOL      0.398048
     44 O6         -3.7610    1.9070    2.3730 o         1 MOL     -0.563122
     45 C15        -2.2100    0.5530    0.4280 c3        1 MOL      0.004835
     46 C16        -1.5310   -0.0840   -0.8490 c         1 MOL      0.694658
     47 O7         -2.1650   -0.4170   -1.8990 o         1 MOL     -0.738745
     48 O8         -0.3410   -0.4680   -0.8020 o         1 MOL     -0.738745
     49 H21        -3.9690    1.7070   -1.7670 hn        1 MOL      0.238960
     50 H22        -4.1490    0.1990   -0.2330 h1        1 MOL      0.123537
     51 H23        -2.2790   -0.2080    1.1980 hc        1 MOL     -0.014083
     52 H24        -1.5740    1.3660    0.7770 hc        1 MOL     -0.014083
     53 N5         -5.7130    1.7130    1.2340 n         1 MOL     -0.329432
     54 C17        -6.5420    1.5790    0.0710 c3        1 MOL      0.040834
     55 C18        -8.0200    1.2690    0.3150 c         1 MOL      0.495595
     56 O9         -8.4620    1.2110    1.4290 o         1 MOL     -0.573964
     57 H25        -6.1040    2.2050    2.0160 hn        1 MOL      0.271464
     58 H26        -6.1970    0.7150   -0.4910 h1        1 MOL      0.020410
     59 H27        -6.5510    2.5030   -0.5070 h1        1 MOL      0.020410
     60 N6         -8.8340    0.9700   -0.6410 n         1 MOL     -0.342036
     61 C19        -8.5960    0.7450   -2.0570 c3        1 MOL     -0.064300
     62 C20        -7.5930   -0.3810   -2.5280 c         1 MOL      0.419870
     63 O10        -7.0550   -0.3030   -3.5970 o         1 MOL     -0.499258
     64 C21        -9.9230    0.4760   -2.8000 c3        1 MOL     -0.141498
     65 C22       -10.8220   -0.6240   -2.1910 c         1 MOL      0.662607
     66 O11       -11.9110   -0.7510   -2.7790 o         1 MOL     -0.635913
     67 O12       -10.4210   -1.3130   -1.2200 o         1 MOL     -0.635913
     68 H28        -9.7810    1.1320   -0.3270 hn        1 MOL      0.296289
     69 H29        -8.2160    1.6830   -2.4580 h1        1 MOL      0.046112
     70 H30        -9.6390    0.2500   -3.8270 hc        1 MOL      0.055536
     71 H31       -10.5000    1.4020   -2.8340 hc        1 MOL      0.055536
     72 N7         -7.4660   -1.3960   -1.6610 n         1 MOL     -0.142365
     73 C23        -6.2980   -2.3700   -1.7290 c3        1 MOL     -0.206601
     74 C24        -5.9150   -2.9690   -0.4290 c         1 MOL      0.745518
     75 O13        -6.5990   -2.8430    0.5650 o         1 MOL     -0.521719
     76 H32        -8.1550   -1.5940   -0.9580 hn        1 MOL      0.199860
     77 H33        -5.4690   -1.7760   -2.1030 h1        1 MOL      0.086528
     78 H34        -6.7320   -3.1970   -2.2960 h1        1 MOL      0.086528
     79 N8         -4.7370   -3.5180   -0.4560 n         1 MOL     -0.659695
     80 C25        -4.0500   -4.1050    0.6660 c3        1 MOL     -0.036298
     81 C26        -2.6950   -3.4280    0.8900 c         1 MOL      0.903427
     82 O14        -2.0010   -2.8420    0.0410 o         1 MOL     -0.787915
     83 C27        -3.9100   -5.5680    0.4090 c3        1 MOL      0.622880
     84 C28        -3.3570   -6.3730    1.5360 c3        1 MOL     -0.440643
     85 O15        -3.0980   -5.9660   -0.7520 oh        1 MOL     -0.759964
     86 H35        -4.3510   -3.8310   -1.3380 hn        1 MOL      0.238344
     87 H36        -4.6560   -4.0840    1.5640 h1        1 MOL      0.063535
     88 H37        -4.9220   -5.9090    0.2180 h1        1 MOL     -0.029338
     89 H38        -3.5760   -5.9060   -1.5770 ho        1 MOL      0.420413
     90 H39        -3.6040   -7.4250    1.4030 hc        1 MOL      0.117062
     91 H40        -2.2720   -6.2350    1.4990 hc        1 MOL      0.117062
     92 H41        -3.7620   -5.9220    2.4430 hc        1 MOL      0.117062
     93 N9         -2.1910   -3.4700    2.1680 n         1 MOL     -0.662888
     94 C29        -0.9280   -2.9250    2.6470 c3        1 MOL     -0.006569
     95 C30         0.1890   -3.9300    2.6210 c         1 MOL      0.495943
     96 O16         0.0720   -4.9800    3.1990 o         1 MOL     -0.581289
     97 C31        -1.0430   -2.3120    4.0950 c3        1 MOL      0.078551
     98 C32        -2.0350   -1.1020    4.1080 c3        1 MOL      0.125179
     99 C33         0.3000   -1.8600    4.6290 c3        1 MOL     -0.224122
    100 C34        -2.5440   -0.8110    5.5120 c3        1 MOL     -0.297388
    101 H42        -2.6770   -4.0520    2.8280 hn        1 MOL      0.326089
    102 H43        -0.6110   -2.1000    2.0170 h1        1 MOL      0.052371
    103 H44        -1.6200   -3.0000    4.7170 hc        1 MOL      0.015757
    104 H45        -2.9350   -1.4000    3.5650 hc        1 MOL      0.029191
    105 H46        -1.5270   -0.2180    3.7090 hc        1 MOL      0.029191
    106 H47         0.1880   -1.4480    5.6260 hc        1 MOL      0.068471
    107 H48         1.0150   -2.6800    4.7090 hc        1 MOL      0.068471
    108 H49         0.5680   -1.0400    3.9630 hc        1 MOL      0.068471
    109 H50        -1.9000   -1.0950    6.3480 hc        1 MOL      0.069917
    110 H51        -2.9510    0.1970    5.5240 hc        1 MOL      0.069917
    111 H52        -3.4150   -1.4560    5.6440 hc        1 MOL      0.069917
    112 N10         1.3650   -3.6710    2.0440 n         1 MOL     -0.208033
    113 C35         2.6660   -4.4090    2.3590 c3        1 MOL     -0.307409
    114 C36         3.7830   -3.4270    2.4690 c         1 MOL      0.525401
    115 O17         4.8540   -3.8400    3.0310 o         1 MOL     -0.519643
    116 C37         2.8910   -5.4570    1.2260 c3        1 MOL      0.591825
    117 C38         3.9080   -6.4550    1.6650 c3        1 MOL     -0.443304
    118 O18         3.4160   -4.7180    0.1360 oh        1 MOL     -0.603878
    119 H53         1.3000   -2.8540    1.4630 hn        1 MOL      0.249662
    120 H54         2.4880   -4.9080    3.3190 h1        1 MOL      0.178537
    121 H55         1.9390   -5.8680    0.8880 h1        1 MOL     -0.061619
    122 H56         2.6380   -4.3200   -0.2640 ho        1 MOL      0.306518
    123 H57         4.0570   -7.0270    0.7480 hc        1 MOL      0.110053
    124 H58         4.8320   -6.0210    2.0440 hc        1 MOL      0.110053
    125 H59         3.4400   -7.0270    2.4720 hc        1 MOL      0.110053
    126 N11         3.6280   -2.1290    2.1900 n         1 MOL     -0.411798
    127 C39         4.6710   -1.0690    2.2490 c3        1 MOL     -0.270153
    128 C40         6.0030   -1.3790    1.4960 c         1 MOL      0.441178
    129 O19         6.2740   -2.5680    1.1490 o         1 MOL     -0.376500
    130 C41         4.9330   -0.6750    3.7340 c3        1 MOL      0.485981
    131 C42         3.7130   -0.3940    4.5830 c3        1 MOL     -0.263315
    132 O20         5.6990    0.5570    3.9320 oh        1 MOL     -0.731061
    133 H60         2.7580   -1.8380    1.7680 hn        1 MOL      0.315023
    134 H61         4.1930   -0.1390    1.9370 h1        1 MOL      0.140968
    135 H62         5.5300   -1.4080    4.2890 h1        1 MOL      0.078153
    136 H63         5.1960    1.3720    4.0400 ho        1 MOL      0.421482
    137 H64         3.0510    0.2560    4.0100 hc        1 MOL      0.057581
    138 H65         3.2070   -1.3090    4.9050 hc        1 MOL      0.057581
    139 H66         3.9410    0.1320    5.5130 hc        1 MOL      0.057581
    140 N12         6.8660   -0.4200    1.2830 n         1 MOL     -0.273157
    141 C43         8.0490   -0.4960    0.4320 c3        1 MOL     -0.205193
    142 C44         7.6640   -1.0130   -0.9890 c         1 MOL      0.390694
    143 O21         8.3900   -1.7670   -1.6410 o         1 MOL     -0.509983
    144 C45         8.7190    0.9030    0.3470 c3        1 MOL      0.189487
    145 C46        10.0040    0.9120   -0.4830 c3        1 MOL     -0.145415
    146 C47        10.6750    2.2880   -0.4260 c3        1 MOL      0.084045
    147 C48        11.9130    2.3640   -1.3110 c3        1 MOL      0.056927
    148 N13        12.8810    3.5000   -1.1520 n4        1 MOL     -0.282868
    149 H67         6.4980    0.5080    1.4430 hn        1 MOL      0.219521
    150 H68         8.7940   -1.1430    0.8810 h1        1 MOL      0.154908
    151 H69         8.9390    1.4310    1.2700 hc        1 MOL     -0.017503
    152 H70         7.9410    1.5190   -0.1000 hc        1 MOL     -0.017503
    153 H71         9.6570    0.6940   -1.4980 hc        1 MOL      0.047935
    154 H72        10.6730    0.2020   -0.0000 hc        1 MOL      0.047935
    155 H73        10.8860    2.5740    0.6000 hc        1 MOL      0.010822
    156 H74         9.9290    2.9680   -0.8320 hc        1 MOL      0.010822
    157 H75        11.5380    2.3290   -2.3290 hx        1 MOL      0.060471
    158 H76        12.4760    1.4530   -1.1390 hx        1 MOL      0.060471
    159 H77        13.4640    3.3680   -0.3320 hn        1 MOL      0.262595
    160 H78        13.5360    3.3910   -1.9020 hn        1 MOL      0.262595
    161 H79        12.4700    4.4220   -1.1380 hn        1 MOL      0.262595
    162 N14         6.4850   -0.5550   -1.4480 n         1 MOL     -0.078601
    163 C49         5.9420   -0.8850   -2.7490 c3        1 MOL     -0.321102
    164 C50         6.1970    0.0950   -3.8930 c         1 MOL      0.510650
    165 O22         5.6190    1.2040   -3.8810 o         1 MOL     -0.507142
    166 C51         4.4110   -1.0310   -2.6140 c3        1 MOL     -0.117398
    167 C52         3.8590   -2.1930   -1.7920 c3        1 MOL     -0.156716
    168 C53         2.3420   -2.3650   -1.9470 c         1 MOL      0.654580
    169 O23         1.6870   -2.8320   -1.0210 o         1 MOL     -0.695379
    170 O24         1.6770   -1.8770   -2.9060 o         1 MOL     -0.695379
    171 H80         6.0730    0.2470   -0.9960 hn        1 MOL      0.220737
    172 H81         6.2450   -1.9080   -2.9630 h1        1 MOL      0.175490
    173 H82         4.1410   -1.1280   -3.6650 hc        1 MOL      0.090191
    174 H83         4.0180   -0.0660   -2.2960 hc        1 MOL      0.090191
    175 H84         4.1230   -2.1730   -0.7340 hc        1 MOL      0.080222
    176 H85         4.3980   -3.1100   -2.0550 hc        1 MOL      0.080222
    177 N15         7.1280   -0.2580   -4.7980 n         1 MOL     -0.293159
    178 C54         7.3930    0.4710   -6.0660 c3        1 MOL     -0.113458
    179 H86         8.4650    0.6330   -6.1740 h1        1 MOL      0.083456
    180 H87         7.0280   -0.1190   -6.9070 h1        1 MOL      0.083456
    181 H88         6.8810    1.4330   -6.0460 h1        1 MOL      0.083456
    182 H89         7.6570   -1.0650   -4.5050 hn        1 MOL      0.232582
    183 Ca1        -0.6510   -2.6240   -2.2390 Ca        1 MOL      1.783231
    184 O25        -0.0270   -4.2800   -4.2760 oh        1 MOL     -0.893249
    185 H90        -0.1030   -4.0260   -5.1970 ho        1 MOL      0.439071
    186 H91        -0.0670   -5.2390   -4.2920 ho        1 MOL      0.439071
    187 O26        -0.5190   -5.0060   -0.9280 oh        1 MOL     -0.893249
    188 H92         0.0290   -5.7840   -1.0210 ho        1 MOL      0.439071
    189 H93        -1.3830   -5.3430   -0.6970 ho        1 MOL      0.439071
    190 O27        -0.7730   -1.1080   -4.4890 oh        1 MOL     -0.893249
    191 H94         0.0830   -0.6890   -4.5250 ho        1 MOL      0.439071
    192 H95        -1.3820   -0.4270   -4.7580 ho        1 MOL      0.439071
@<TRIPOS>BOND
     1    1    2 1   
     2    1    4 1   
     3    1    5 1   
     4    1    6 1   
     5    2    3 2   
     6    2    7 1   
     7    7    8 1   
     8    7   15 1   
     9    8    9 1   
    10    8   11 1   
    11    8   16 1   
    12    9   10 2   
    13    9   19 1   
    14   11   12 1   
    15   11   17 1   
    16   11   18 1   
    17   12   13 1   
    18   12   14 1   
    19   19   20 1   
    20   19   28 1   
    21   20   21 1   
    22   20   23 1   
    23   20   29 1   
    24   21   22 2   
    25   21   41 1   
    26   23   24 1   
    27   23   30 1   
    28   23   31 1   
    29   24   25 1   
    30   24   32 1   
    31   24   33 1   
    32   25   26 1   
    33   25   34 1   
    34   25   35 1   
    35   26   27 1   
    36   26   36 1   
    37   26   37 1   
    38   27   38 1   
    39   27   39 1   
    40   27   40 1   
    41   41   42 1   
    42   41   49 1   
    43   42   43 1   
    44   42   45 1   
    45   42   50 1   
    46   43   44 2   
    47   43   53 1   
    48   45   46 1   
    49   45   51 1   
    50   45   52 1   
    51   46   47 1   
    52   46   48 1   
    53   53   54 1   
    54   53   57 1   
    55   54   55 1   
    56   54   58 1   
    57   54   59 1   
    58   55   56 2   
    59   55   60 1   
    60   60   61 1   
    61   60   68 1   
    62   61   62 1   
    63   61   64 1   
    64   61   69 1   
    65   62   63 2   
    66   62   72 1   
    67   64   65 1   
    68   64   70 1   
    69   64   71 1   
    70   65   66 1   
    71   65   67 1   
    72   72   73 1   
    73   72   76 1   
    74   73   74 1   
    75   73   77 1   
    76   73   78 1   
    77   74   75 2   
    78   74   79 1   
    79   79   80 1   
    80   79   86 1   
    81   80   81 1   
    82   80   83 1   
    83   80   87 1   
    84   81   82 2   
    85   81   93 1   
    86   83   84 1   
    87   83   85 1   
    88   83   88 1   
    89   84   90 1   
    90   84   91 1   
    91   84   92 1   
    92   85   89 1   
    93   93   94 1   
    94   93  101 1   
    95   94   95 1   
    96   94   97 1   
    97   94  102 1   
    98   95   96 2   
    99   95  112 1   
   100   97   98 1   
   101   97   99 1   
   102   97  103 1   
   103   98  100 1   
   104   98  104 1   
   105   98  105 1   
   106   99  106 1   
   107   99  107 1   
   108   99  108 1   
   109  100  109 1   
   110  100  110 1   
   111  100  111 1   
   112  112  113 1   
   113  112  119 1   
   114  113  114 1   
   115  113  116 1   
   116  113  120 1   
   117  114  115 2   
   118  114  126 1   
   119  116  117 1   
   120  116  118 1   
   121  116  121 1   
   122  117  123 1   
   123  117  124 1   
   124  117  125 1   
   125  118  122 1   
   126  126  127 1   
   127  126  133 1   
   128  127  128 1   
   129  127  130 1   
   130  127  134 1   
   131  128  129 2   
   132  128  140 1   
   133  130  131 1   
   134  130  132 1   
   135  130  135 1   
   136  131  137 1   
   137  131  138 1   
   138  131  139 1   
   139  132  136 1   
   140  140  141 1   
   141  140  149 1   
   142  141  142 1   
   143  141  144 1   
   144  141  150 1   
   145  142  143 2   
   146  142  162 1   
   147  144  145 1   
   148  144  151 1   
   149  144  152 1   
   150  145  146 1   
   151  145  153 1   
   152  145  154 1   
   153  146  147 1   
   154  146  155 1   
   155  146  156 1   
   156  147  148 1   
   157  147  157 1   
   158  147  158 1   
   159  148  159 1   
   160  148  160 1   
   161  148  161 1   
   162  162  163 1   
   163  162  171 1   
   164  163  164 1   
   165  163  166 1   
   166  163  172 1   
   167  164  165 2   
   168  164  177 1   
   169  166  167 1   
   170  166  173 1   
   171  166  174 1   
   172  167  168 1   
   173  167  175 1   
   174  167  176 1   
   175  168  169 1   
   176  168  170 1   
   177  177  178 1   
   178  177  182 1   
   179  178  179 1   
   180  178  180 1   
   181  178  181 1   
   182  184  185 1   
   183  184  186 1   
   184  187  188 1   
   185  187  189 1   
   186  190  191 1   
   187  190  192 1   
@<TRIPOS>SUBSTRUCTURE
     1 MOL         1 TEMP              0 ****  ****    0 ROOT
