@<TRIPOS>MOLECULE
MOL
  179   176     1     0     0
SMALL
resp


@<TRIPOS>ATOM
      1 C1          1.4150   -6.1420    5.1480 c3        1 MOL     -0.401399
      2 C2          1.2040   -5.3170    3.7820 c         1 MOL      0.663248
      3 O1          0.3590   -5.6740    2.9360 o         1 MOL     -0.574971
      4 H1          0.4440   -6.4300    5.5510 hc        1 MOL      0.119307
      5 H2          2.0040   -7.0360    4.9450 hc        1 MOL      0.119307
      6 H3          1.9380   -5.5180    5.8720 hc        1 MOL      0.119307
      7 N1          1.9940   -4.2510    3.5010 n         1 MOL     -0.580216
      8 C3          2.1160   -3.5750    2.1360 c3        1 MOL     -0.033674
      9 C4          2.6640   -4.4890    1.0290 c         1 MOL      0.624627
     10 O2          3.7480   -5.0230    1.2290 o         1 MOL     -0.522576
     11 C5          3.0500   -2.3770    2.3290 c3        1 MOL      0.408555
     12 C6          3.3520   -1.3380    1.2160 c         1 MOL      0.067645
     13 O3          4.0030   -0.3120    1.5530 o         1 MOL     -0.631487
     14 O4          3.1060   -1.5810    0.0400 o         1 MOL     -0.631487
     15 H4          2.7730   -4.0800    4.1300 hn        1 MOL      0.294884
     16 H5          1.1280   -3.2030    1.8890 h1        1 MOL      0.023368
     17 H6          3.9440   -2.7290    2.8490 hc        1 MOL     -0.004860
     18 H7          2.5950   -1.8040    3.1370 hc        1 MOL     -0.004860
     19 N2          1.8770   -4.5030   -0.0560 n         1 MOL     -0.356839
     20 C7          2.2190   -5.3760   -1.1730 c3        1 MOL      0.035830
     21 C8          3.4770   -4.9500   -1.9570 c         1 MOL      0.379997
     22 O5          4.1180   -5.8030   -2.5660 o         1 MOL     -0.535022
     23 C9          1.0460   -5.4030   -2.1510 c3        1 MOL     -0.147834
     24 C10         0.7530   -4.0390   -2.8660 c3        1 MOL      0.206573
     25 C11        -0.4690   -4.0950   -3.7490 c3        1 MOL     -0.069325
     26 C12        -0.4910   -2.7400   -4.4700 c3        1 MOL      0.203224
     27 N3         -1.7070   -2.5680   -5.3620 n4        1 MOL     -0.339730
     28 H8          0.9290   -4.1490   -0.0200 hn        1 MOL      0.263015
     29 H9          2.3560   -6.4060   -0.8380 h1        1 MOL      0.103036
     30 H10         0.1690   -5.6750   -1.5600 hc        1 MOL      0.050644
     31 H11         1.2080   -6.1340   -2.9410 hc        1 MOL      0.050644
     32 H12         1.6240   -3.7360   -3.4520 hc        1 MOL     -0.010052
     33 H13         0.4860   -3.4060   -2.0190 hc        1 MOL     -0.010052
     34 H14        -1.3920   -4.1600   -3.1870 hc        1 MOL      0.017001
     35 H15        -0.4520   -4.9290   -4.4520 hc        1 MOL      0.017001
     36 H16         0.3280   -2.6240   -5.1810 hx        1 MOL      0.018523
     37 H17        -0.4600   -1.9920   -3.6810 hx        1 MOL      0.018523
     38 H18        -1.6770   -1.6140   -5.6850 hn        1 MOL      0.283813
     39 H19        -1.6320   -3.2170   -6.1340 hn        1 MOL      0.283813
     40 H20        -2.5780   -2.7370   -4.8880 hn        1 MOL      0.283813
     41 N4          3.8350   -3.6830   -1.9220 n         1 MOL     -0.088886
     42 C13         4.9800   -3.0570   -2.6350 c3        1 MOL      0.072905
     43 C14         6.0520   -2.5350   -1.6880 c         1 MOL      0.360587
     44 O6          7.1110   -2.0910   -2.1740 o         1 MOL     -0.508052
     45 C15         4.5040   -1.9270   -3.5190 c3        1 MOL     -0.364675
     46 C16         3.7170   -0.8100   -2.8270 c         1 MOL      0.900164
     47 O7          4.4260   -0.0380   -2.1610 o         1 MOL     -0.832422
     48 O8          2.4700   -0.7230   -2.8930 o         1 MOL     -0.832422
     49 H21         3.2240   -3.0650   -1.4140 hn        1 MOL      0.011894
     50 H22         5.4180   -3.8230   -3.2740 h1        1 MOL      0.117331
     51 H23         3.8850   -2.4290   -4.2550 hc        1 MOL      0.106620
     52 H24         5.3720   -1.4690   -4.0060 hc        1 MOL      0.106620
     53 N5          5.7990   -2.6120   -0.3430 n         1 MOL     -0.094992
     54 C17         6.7690   -2.2860    0.6810 c3        1 MOL     -0.142510
     55 C18         7.3210   -0.8920    0.6630 c         1 MOL      0.427195
     56 O9          8.4140   -0.6330    1.2080 o         1 MOL     -0.570103
     57 H25         4.8410   -2.7870   -0.0730 hn        1 MOL      0.048353
     58 H26         7.5610   -3.0400    0.6160 h1        1 MOL      0.107111
     59 H27         6.3690   -2.4450    1.6880 h1        1 MOL      0.107111
     60 N6          6.6350    0.0150    0.0800 n         1 MOL     -0.198005
     61 C19         7.0810    1.3880   -0.2250 c3        1 MOL     -0.106745
     62 C20         5.9250    2.4510   -0.0300 c         1 MOL      0.556211
     63 O10         4.7590    2.1480   -0.2040 o         1 MOL     -0.578938
     64 C21         7.5420    1.3230   -1.7250 c3        1 MOL     -0.136084
     65 C22         6.9320    2.4410   -2.5380 c         1 MOL      0.542806
     66 N7          5.7350    2.1360   -3.0320 n         1 MOL     -0.631042
     67 O11         7.4910    3.5320   -2.8080 o         1 MOL     -0.578416
     68 H28         5.8030   -0.2480   -0.4160 hn        1 MOL      0.532960
     69 H29         7.8890    1.7200    0.4410 h1        1 MOL      0.092746
     70 H30         7.3690    0.3320   -2.1260 hc        1 MOL      0.082464
     71 H31         8.6200    1.5000   -1.7750 hc        1 MOL      0.082464
     72 H32         5.2740    1.3010   -2.7070 hn        1 MOL      0.285797
     73 H33         5.2000    2.9360   -3.3150 hn        1 MOL      0.285797
     74 N8          6.3570    3.7210    0.2440 n         1 MOL     -0.444956
     75 C23         5.4870    4.9300    0.1380 c3        1 MOL     -0.039693
     76 C24         4.3410    4.9320    1.1720 c         1 MOL      0.555305
     77 O12         4.4970    4.6590    2.3660 o         1 MOL     -0.504183
     78 H34         7.3480    3.9090    0.2250 hn        1 MOL      0.332754
     79 H35         5.0150    5.1050   -0.8280 h1        1 MOL      0.081939
     80 H36         6.0830    5.7980    0.4160 h1        1 MOL      0.081939
     81 N9          3.1260    5.1780    0.7090 n         1 MOL     -0.469648
     82 C25         1.9670    5.0320    1.5270 c3        1 MOL      0.011611
     83 C26         1.5720    3.5880    1.6820 c         1 MOL      0.665887
     84 O13         1.7200    2.7980    0.7330 o         1 MOL     -0.615295
     85 C27         0.8540    6.0050    1.0510 c3        1 MOL     -0.369350
     86 C28        -0.0320    5.6150   -0.1100 ca        1 MOL      0.091735
     87 C29         0.1450    6.2510   -1.3470 ca        1 MOL     -0.097171
     88 C30        -0.9100    4.5640   -0.0010 ca        1 MOL     -0.097171
     89 C31        -0.5180    5.7330   -2.4780 ca        1 MOL     -0.336736
     90 C32        -1.6810    4.1170   -1.0700 ca        1 MOL     -0.336736
     91 C33        -1.5130    4.7380   -2.2830 ca        1 MOL      0.454493
     92 O14        -2.3020    4.6470   -3.4150 oh        1 MOL     -0.595287
     93 H37         2.9810    5.3680   -0.2720 hn        1 MOL      0.278730
     94 H38         2.2410    5.3330    2.5360 h1        1 MOL      0.097803
     95 H39         1.4110    6.9090    0.8240 hc        1 MOL      0.138645
     96 H40         0.0880    6.2660    1.7810 hc        1 MOL      0.138645
     97 H41         0.9890    6.9150   -1.4460 ha        1 MOL      0.093513
     98 H42        -0.8930    4.0390    0.9480 ha        1 MOL      0.093513
     99 H43        -0.3380    6.2360   -3.4160 ha        1 MOL      0.183566
    100 H44        -2.3810    3.3010   -0.9270 ha        1 MOL      0.183566
    101 H45        -3.1530    4.2000   -3.3250 ho        1 MOL      0.445574
    102 N10         1.0250    3.2620    2.8750 n         1 MOL     -0.339704
    103 C34         0.6450    1.9430    3.3810 c3        1 MOL     -0.170278
    104 C35         0.1950    0.8820    2.2960 c         1 MOL      0.374256
    105 O15         0.9860    0.2380    1.6090 o         1 MOL     -0.357154
    106 C36         1.6900    1.3300    4.3200 c3        1 MOL      0.187095
    107 C37         1.0980    0.1110    5.0900 c3        1 MOL      0.117750
    108 C38         2.3770    2.3640    5.2760 c3        1 MOL     -0.310339
    109 C39         2.1570   -0.7170    5.7920 c3        1 MOL     -0.012305
    110 H46         0.8980    4.0590    3.4900 hn        1 MOL      0.264649
    111 H47        -0.2800    2.1830    3.9110 h1        1 MOL      0.080987
    112 H48         2.5240    0.9040    3.7550 hc        1 MOL      0.053882
    113 H49         0.6120   -0.5490    4.3810 hc        1 MOL     -0.039772
    114 H50         0.3820    0.4280    5.8530 hc        1 MOL     -0.039772
    115 H51         1.7190    2.4550    6.1440 hc        1 MOL      0.084604
    116 H52         3.2290    1.8650    5.7380 hc        1 MOL      0.084604
    117 H53         2.7350    3.3020    4.8710 hc        1 MOL      0.084604
    118 H54         1.7460   -1.6570    6.1720 hc        1 MOL     -0.009624
    119 H55         2.9280   -1.0750    5.1190 hc        1 MOL     -0.009624
    120 H56         2.5040   -0.0700    6.6020 hc        1 MOL     -0.009624
    121 N11        -1.1060    0.6720    2.1950 n         1 MOL     -0.456159
    122 C40        -1.7090   -0.4620    1.5470 c3        1 MOL     -0.026294
    123 C41        -3.0990   -0.2960    0.8660 c         1 MOL      0.556869
    124 O16        -3.5690   -1.3330    0.3320 o         1 MOL     -0.539011
    125 C42        -1.7350   -1.4780    2.7260 c3        1 MOL      0.226838
    126 O17        -2.5720   -1.0490    3.7620 oh        1 MOL     -0.600903
    127 H57        -1.7410    1.3320    2.6410 hn        1 MOL      0.312201
    128 H58        -1.0360   -0.7160    0.7270 h1        1 MOL      0.068400
    129 H59        -0.6910   -1.6060    3.0370 h1        1 MOL      0.019429
    130 H60        -2.0360   -2.4380    2.3270 h1        1 MOL      0.019429
    131 H61        -2.3980   -1.6720    4.4720 ho        1 MOL      0.411815
    132 N12        -3.7320    0.8770    0.8870 n         1 MOL     -0.361103
    133 C43        -4.9440    1.0830    0.1070 c3        1 MOL      0.034614
    134 C44        -4.8310    0.6520   -1.3910 c         1 MOL      0.672394
    135 O18        -3.8890    1.2420   -1.9870 o         1 MOL     -0.644576
    136 C45        -5.4450    2.4980    0.1640 c3        1 MOL     -0.348993
    137 H62        -3.4160    1.6860    1.4060 hn        1 MOL      0.287492
    138 H63        -5.8040    0.5880    0.5750 h1        1 MOL      0.071204
    139 H64        -5.5090    2.9690    1.1440 hc        1 MOL      0.108096
    140 H65        -4.7760    3.1250   -0.4340 hc        1 MOL      0.108096
    141 H66        -6.3820    2.5330   -0.3900 hc        1 MOL      0.108096
    142 N13        -5.7730   -0.1070   -1.9750 n         1 MOL     -0.648029
    143 C46        -7.0230   -0.7310   -1.3300 c3        1 MOL      0.440474
    144 C47        -8.3530    0.1760   -1.5050 c         1 MOL      0.382323
    145 O19        -8.4040    1.1210   -2.1870 o         1 MOL     -0.495345
    146 C48        -7.1270   -2.1200   -1.9290 c3        1 MOL     -0.408046
    147 H67        -5.6930   -0.3350   -2.9510 hn        1 MOL      0.333226
    148 H68        -6.8700   -0.8310   -0.2590 h1        1 MOL     -0.005850
    149 H69        -6.1580   -2.5870   -1.7880 hc        1 MOL      0.109505
    150 H70        -7.9130   -2.6960   -1.4440 hc        1 MOL      0.109505
    151 H71        -7.4310   -2.1010   -2.9800 hc        1 MOL      0.109505
    152 N14        -9.5060   -0.1500   -0.9060 n         1 MOL     -0.284042
    153 C49        -9.6590   -1.1740    0.1740 c3        1 MOL     -0.380750
    154 C50        -9.7370   -0.6360    1.6720 c         1 MOL      0.461575
    155 O20        -9.6660   -1.4490    2.5850 o         1 MOL     -0.492665
    156 C51       -10.9690   -1.8760   -0.1380 c3        1 MOL      0.260897
    157 C52       -12.3100   -1.0630   -0.0950 c3        1 MOL     -0.316030
    158 C53       -12.3600    0.0040   -1.2520 c         1 MOL      0.731443
    159 O21       -12.6650   -0.2490   -2.4460 o         1 MOL     -0.657696
    160 O22       -12.1750    1.2060   -0.9220 o         1 MOL     -0.657696
    161 H72       -10.2550    0.4930   -1.1230 hn        1 MOL      0.264082
    162 H73        -8.9180   -1.9720    0.1860 h1        1 MOL      0.137952
    163 H74       -10.9830   -2.5880    0.6840 hc        1 MOL     -0.023765
    164 H75       -10.8780   -2.4780   -1.0390 hc        1 MOL     -0.023765
    165 H76       -12.4610   -0.5310    0.8350 hc        1 MOL      0.063294
    166 H77       -13.1250   -1.7610   -0.2950 hc        1 MOL      0.063294
    167 N15       -10.2090    0.6300    1.8520 n         1 MOL     -0.157603
    168 C54       -10.2780    1.2220    3.1720 c3        1 MOL     -0.176576
    169 H78       -11.1450    0.8270    3.7010 h1        1 MOL      0.082687
    170 H79        -9.3710    0.9780    3.7270 h1        1 MOL      0.082687
    171 H80       -10.3690    2.3040    3.0820 h1        1 MOL      0.082687
    172 H81       -10.4580    1.1590    1.0240 hn        1 MOL      0.190524
    173 Ca1         2.4310    0.8330   -0.7460 Ca        1 MOL      1.792815
    174 O23        -0.2170    0.3110   -1.4240 oh        1 MOL     -0.892906
    175 H82        -0.8880   -0.3620   -1.4800 ho        1 MOL      0.441219
    176 H83        -0.1300    0.6430   -2.3130 ho        1 MOL      0.441219
    177 O24         1.8020    2.7700   -2.6110 oh        1 MOL     -0.892906
    178 H84         2.1350    3.6590   -2.5000 ho        1 MOL      0.441219
    179 H85         1.5330    2.7370   -3.5290 ho        1 MOL      0.441219
@<TRIPOS>BOND
     1    1    2 1   
     2    1    4 1   
     3    1    5 1   
     4    1    6 1   
     5    2    3 2   
     6    2    7 1   
     7    7    8 1   
     8    7   15 1   
     9    8    9 1   
    10    8   11 1   
    11    8   16 1   
    12    9   10 2   
    13    9   19 1   
    14   11   12 1   
    15   11   17 1   
    16   11   18 1   
    17   12   13 1   
    18   12   14 1   
    19   19   20 1   
    20   19   28 1   
    21   20   21 1   
    22   20   23 1   
    23   20   29 1   
    24   21   22 2   
    25   21   41 1   
    26   23   24 1   
    27   23   30 1   
    28   23   31 1   
    29   24   25 1   
    30   24   32 1   
    31   24   33 1   
    32   25   26 1   
    33   25   34 1   
    34   25   35 1   
    35   26   27 1   
    36   26   36 1   
    37   26   37 1   
    38   27   38 1   
    39   27   39 1   
    40   27   40 1   
    41   41   42 1   
    42   41   49 1   
    43   42   43 1   
    44   42   45 1   
    45   42   50 1   
    46   43   44 2   
    47   43   53 1   
    48   45   46 1   
    49   45   51 1   
    50   45   52 1   
    51   46   47 1   
    52   46   48 1   
    53   53   54 1   
    54   53   57 1   
    55   54   55 1   
    56   54   58 1   
    57   54   59 1   
    58   55   56 2   
    59   55   60 1   
    60   60   61 1   
    61   60   68 1   
    62   61   62 1   
    63   61   64 1   
    64   61   69 1   
    65   62   63 2   
    66   62   74 1   
    67   64   65 1   
    68   64   70 1   
    69   64   71 1   
    70   65   66 1   
    71   65   67 2   
    72   66   72 1   
    73   66   73 1   
    74   74   75 1   
    75   74   78 1   
    76   75   76 1   
    77   75   79 1   
    78   75   80 1   
    79   76   77 2   
    80   76   81 1   
    81   81   82 1   
    82   81   93 1   
    83   82   83 1   
    84   82   85 1   
    85   82   94 1   
    86   83   84 2   
    87   83  102 1   
    88   85   86 1   
    89   85   95 1   
    90   85   96 1   
    91   86   87 ar  
    92   86   88 ar  
    93   87   89 ar  
    94   87   97 1   
    95   88   90 ar  
    96   88   98 1   
    97   89   91 ar  
    98   89   99 1   
    99   90   91 ar  
   100   90  100 1   
   101   91   92 1   
   102   92  101 1   
   103  102  103 1   
   104  102  110 1   
   105  103  104 1   
   106  103  106 1   
   107  103  111 1   
   108  104  105 2   
   109  104  121 1   
   110  106  107 1   
   111  106  108 1   
   112  106  112 1   
   113  107  109 1   
   114  107  113 1   
   115  107  114 1   
   116  108  115 1   
   117  108  116 1   
   118  108  117 1   
   119  109  118 1   
   120  109  119 1   
   121  109  120 1   
   122  121  122 1   
   123  121  127 1   
   124  122  123 1   
   125  122  125 1   
   126  122  128 1   
   127  123  124 2   
   128  123  132 1   
   129  125  126 1   
   130  125  129 1   
   131  125  130 1   
   132  126  131 1   
   133  132  133 1   
   134  132  137 1   
   135  133  134 1   
   136  133  136 1   
   137  133  138 1   
   138  134  135 2   
   139  134  142 1   
   140  136  139 1   
   141  136  140 1   
   142  136  141 1   
   143  142  143 1   
   144  142  147 1   
   145  143  144 1   
   146  143  146 1   
   147  143  148 1   
   148  144  145 2   
   149  144  152 1   
   150  146  149 1   
   151  146  150 1   
   152  146  151 1   
   153  152  153 1   
   154  152  161 1   
   155  153  154 1   
   156  153  156 1   
   157  153  162 1   
   158  154  155 2   
   159  154  167 1   
   160  156  157 1   
   161  156  163 1   
   162  156  164 1   
   163  157  158 1   
   164  157  165 1   
   165  157  166 1   
   166  158  159 1   
   167  158  160 1   
   168  167  168 1   
   169  167  172 1   
   170  168  169 1   
   171  168  170 1   
   172  168  171 1   
   173  174  175 1   
   174  174  176 1   
   175  177  178 1   
   176  177  179 1   
@<TRIPOS>SUBSTRUCTURE
     1 MOL         1 TEMP              0 ****  ****    0 ROOT
