@<TRIPOS>MOLECULE
MOL
  181   177     1     0     0
SMALL
resp


@<TRIPOS>ATOM
      1 C1          0.7330    7.0890   -2.0560 c3        1 MOL     -0.320396
      2 C2          2.1620    7.0100   -1.5020 c         1 MOL      0.687572
      3 O1          2.4630    7.7400   -0.5290 o         1 MOL     -0.592991
      4 H1          0.2710    8.0230   -1.7340 hc        1 MOL      0.078316
      5 H2          0.7620    7.0550   -3.1450 hc        1 MOL      0.078316
      6 H3          0.1500    6.2480   -1.6810 hc        1 MOL      0.078316
      7 N1          3.0430    6.0770   -1.9290 n         1 MOL     -0.644731
      8 C3          4.2360    5.8020   -1.2330 c3        1 MOL      0.256381
      9 C4          4.1880    4.5440   -0.2920 c         1 MOL      0.549725
     10 O2          3.6300    3.4640   -0.6180 o         1 MOL     -0.617856
     11 C5          5.3750    5.8080   -2.3460 c3        1 MOL     -0.042138
     12 C6          6.7890    6.0500   -1.6520 c         1 MOL      0.577529
     13 O3          7.7260    5.3340   -2.1540 o         1 MOL     -0.694731
     14 O4          6.8330    6.7720   -0.6100 o         1 MOL     -0.694731
     15 H4          2.7940    5.4820   -2.6990 hn        1 MOL      0.299063
     16 H5          4.5170    6.6770   -0.6490 h1        1 MOL      0.015473
     17 H6          5.2180    6.5590   -3.1180 hc        1 MOL     -0.022612
     18 H7          5.3750    4.8430   -2.8440 hc        1 MOL     -0.022612
     19 N2          4.7650    4.7360    0.8690 n         1 MOL     -0.393437
     20 C7          4.8640    3.7460    2.0010 c3        1 MOL      0.041978
     21 C8          3.4650    3.3330    2.5840 c         1 MOL      0.679297
     22 O5          2.5980    4.2140    2.6240 o         1 MOL     -0.595144
     23 C9          5.6720    4.4840    3.0570 c3        1 MOL     -0.541394
     24 H8          4.9710    5.6990    1.1020 hn        1 MOL      0.294755
     25 H9          5.3750    2.9000    1.5370 h1        1 MOL      0.160703
     26 H10         5.8570    3.7740    3.8690 hc        1 MOL      0.157431
     27 H11         6.6320    4.7170    2.6060 hc        1 MOL      0.157431
     28 H12         5.1910    5.4150    3.3630 hc        1 MOL      0.157431
     29 N3          3.2760    2.1910    3.2120 n         1 MOL     -0.617788
     30 C10         4.2710    1.1510    3.4260 c3        1 MOL      0.419758
     31 C11         4.4240    0.3150    2.1910 c         1 MOL      0.097118
     32 O6          3.6670    0.3310    1.2230 o         1 MOL     -0.369816
     33 C12         3.9050    0.2830    4.6280 c3        1 MOL     -0.527405
     34 C13         2.3870   -0.1750    4.5870 c         1 MOL      0.709962
     35 O7          1.9060   -0.8030    5.5700 o         1 MOL     -0.643086
     36 O8          1.6730    0.0320    3.6060 o         1 MOL     -0.643086
     37 H13         2.3580    1.9580    3.5570 hn        1 MOL      0.371492
     38 H14         5.1760    1.7110    3.6790 h1        1 MOL     -0.013724
     39 H15         4.2500    0.8050    5.5210 hc        1 MOL      0.116694
     40 H16         4.5110   -0.6190    4.5500 hc        1 MOL      0.116694
     41 N4          5.4000   -0.5640    2.2340 n         1 MOL     -0.210193
     42 C14         5.7990   -1.4920    1.2980 c3        1 MOL      0.046005
     43 C15         6.9280   -0.9650    0.4150 c         1 MOL      0.529410
     44 O9          7.4980    0.0760    0.6490 o         1 MOL     -0.518021
     45 H17         6.0200   -0.5220    3.0310 hn        1 MOL      0.205646
     46 H18         4.8930   -1.8490    0.7990 h1        1 MOL      0.017702
     47 H19         6.1280   -2.3770    1.8440 h1        1 MOL      0.017702
     48 N5          7.2600   -1.6930   -0.6290 n         1 MOL     -0.384398
     49 C16         6.8190   -2.9940   -0.9890 c3        1 MOL      0.020710
     50 C17         5.5270   -2.9670   -1.8750 c         1 MOL      0.501442
     51 O10         4.8990   -1.9560   -2.0530 o         1 MOL     -0.430958
     52 C18         8.0060   -3.7350   -1.6210 c3        1 MOL     -0.312278
     53 C19         8.2800   -3.2050   -3.0460 c         1 MOL      0.678644
     54 N6          8.3940   -4.1120   -3.9890 n         1 MOL     -0.812427
     55 O11         8.5200   -2.0460   -3.2600 o         1 MOL     -0.487942
     56 H20         8.0900   -1.3760   -1.1230 hn        1 MOL      0.280908
     57 H21         6.6210   -3.6090   -0.1090 h1        1 MOL      0.066594
     58 H22         7.9310   -4.8170   -1.4710 hc        1 MOL      0.095555
     59 H23         8.8570   -3.4590   -0.9980 hc        1 MOL      0.095555
     60 H24         8.3230   -5.1030   -3.7770 hn        1 MOL      0.369508
     61 H25         8.6720   -3.7670   -4.8970 hn        1 MOL      0.369508
     62 N7          5.0690   -4.0830   -2.4950 n         1 MOL     -0.390615
     63 C20         3.8410   -4.1430   -3.2860 c3        1 MOL     -0.123338
     64 C21         2.5240   -4.2230   -2.4650 c         1 MOL      0.425074
     65 O12         1.5310   -3.7110   -2.9490 o         1 MOL     -0.508247
     66 H26         5.5840   -4.9480   -2.4020 hn        1 MOL      0.237374
     67 H27         3.9630   -4.8930   -4.0730 h1        1 MOL      0.121591
     68 H28         3.8680   -3.1930   -3.8050 h1        1 MOL      0.121591
     69 N8          2.5120   -4.8020   -1.2520 n         1 MOL     -0.302135
     70 C22         1.2130   -5.2850   -0.5690 c3        1 MOL     -0.018454
     71 C23         0.1480   -4.1600   -0.5140 c         1 MOL      0.398421
     72 O13         0.3870   -3.0180   -0.1270 o         1 MOL     -0.499051
     73 C24         1.5250   -6.0070    0.7340 c3        1 MOL      0.324289
     74 C25         0.3040   -6.7880    1.2170 c3        1 MOL     -0.301303
     75 O14         2.5650   -6.9580    0.5000 oh        1 MOL     -0.653334
     76 H29         3.3630   -5.1490   -0.8300 hn        1 MOL      0.212517
     77 H30         0.8070   -6.0890   -1.1990 h1        1 MOL      0.087418
     78 H31         1.8240   -5.2930    1.4900 h1        1 MOL      0.021399
     79 H32         2.5140   -7.6160    1.2070 ho        1 MOL      0.401126
     80 H33         0.0500   -7.5340    0.4640 hc        1 MOL      0.084371
     81 H34         0.5550   -7.2840    2.1580 hc        1 MOL      0.084371
     82 H35        -0.5000   -6.0660    1.3310 hc        1 MOL      0.084371
     83 N9         -1.0840   -4.4610   -0.9910 n         1 MOL     -0.228196
     84 C26        -2.2170   -3.5980   -0.8890 c3        1 MOL     -0.096448
     85 C27        -2.7290   -3.5660    0.5810 c         1 MOL      0.355882
     86 O15        -2.8350   -4.6150    1.1930 o         1 MOL     -0.559734
     87 C28        -3.3660   -4.0290   -1.8030 c3        1 MOL      0.055605
     88 C29        -4.5250   -2.9720   -1.7920 c3        1 MOL      0.252561
     89 C30        -2.9230   -4.4400   -3.2430 c3        1 MOL     -0.211202
     90 C31        -5.7910   -3.1960   -2.6830 c3        1 MOL     -0.347323
     91 H36        -1.1230   -5.4270   -1.2860 hn        1 MOL      0.232632
     92 H37        -1.9750   -2.5350   -1.0240 h1        1 MOL      0.124841
     93 H38        -3.7430   -4.9670   -1.4030 hc        1 MOL      0.011911
     94 H39        -4.0870   -2.0530   -2.1960 hc        1 MOL     -0.036358
     95 H40        -4.9070   -2.8930   -0.7740 hc        1 MOL     -0.036358
     96 H41        -2.0990   -5.1410   -3.2800 hc        1 MOL      0.047352
     97 H42        -3.7590   -4.8190   -3.8380 hc        1 MOL      0.047352
     98 H43        -2.5370   -3.5610   -3.7760 hc        1 MOL      0.047352
     99 H44        -6.4030   -4.0650   -2.4660 hc        1 MOL      0.064099
    100 H45        -6.4840   -2.3860   -2.4550 hc        1 MOL      0.064099
    101 H46        -5.4040   -3.1770   -3.7060 hc        1 MOL      0.064099
    102 N10        -3.1150   -2.4140    1.1020 n         1 MOL     -0.049430
    103 C32        -3.7140   -2.2570    2.3990 c3        1 MOL     -0.039404
    104 C33        -5.0190   -1.4550    2.3820 c         1 MOL      0.425320
    105 O16        -5.8090   -1.5400    3.3220 o         1 MOL     -0.547101
    106 C34        -2.7620   -1.7180    3.4290 c3        1 MOL     -0.067988
    107 C35        -1.4810   -2.4820    3.3680 c         1 MOL      0.641578
    108 O17        -0.6120   -2.2080    2.4760 o         1 MOL     -0.665050
    109 O18        -1.2610   -3.2140    4.3520 o         1 MOL     -0.665050
    110 H47        -2.9170   -1.6150    0.5230 hn        1 MOL      0.265523
    111 H48        -4.0180   -3.2620    2.6590 h1        1 MOL      0.096649
    112 H49        -3.2330   -1.7060    4.4120 hc        1 MOL      0.032747
    113 H50        -2.5960   -0.7010    3.0880 hc        1 MOL      0.032747
    114 N11        -5.2540   -0.6760    1.3280 n         1 MOL     -0.490501
    115 C36        -6.4100    0.1900    1.1120 c3        1 MOL      0.662216
    116 C37        -6.0440    1.5730    0.5200 c         1 MOL      0.027308
    117 O19        -6.6380    1.9670   -0.4860 o         1 MOL     -0.369488
    118 C38        -7.4440   -0.6670    0.3450 c3        1 MOL     -0.415325
    119 C39        -8.8310   -0.0660    0.1730 ca        1 MOL      0.172545
    120 C40        -9.2610    0.9820    1.0770 ca        1 MOL     -0.181980
    121 C41        -9.7190   -0.6150   -0.7210 ca        1 MOL     -0.181980
    122 C42       -10.5590    1.4560    0.8800 ca        1 MOL     -0.134213
    123 C43       -11.0280   -0.0860   -0.9030 ca        1 MOL     -0.134213
    124 C44       -11.3510    1.0710   -0.1810 ca        1 MOL     -0.083592
    125 H51        -4.4770   -0.4370    0.7280 hn        1 MOL      0.079957
    126 H52        -6.8070    0.3850    2.1120 h1        1 MOL     -0.060179
    127 H53        -7.5490   -1.6110    0.8770 hc        1 MOL      0.133947
    128 H54        -6.9450   -0.7990   -0.6140 hc        1 MOL      0.133947
    129 H55        -8.6620    1.4660    1.8380 ha        1 MOL      0.129703
    130 H56        -9.3290   -1.3900   -1.3630 ha        1 MOL      0.129703
    131 H57       -11.0400    2.1000    1.5990 ha        1 MOL      0.101397
    132 H58       -11.7590   -0.5700   -1.5410 ha        1 MOL      0.101397
    133 H59       -12.3260    1.4900   -0.3540 ha        1 MOL      0.079974
    134 N12        -5.0290    2.3220    1.1240 n         1 MOL      0.006968
    135 C45        -4.4570    3.5020    0.5110 c3        1 MOL      0.013867
    136 C46        -4.2180    3.5200   -1.0040 c         1 MOL      0.188797
    137 O20        -4.3240    4.5650   -1.6750 o         1 MOL     -0.513949
    138 C47        -3.1500    3.6770    1.2760 c3        1 MOL      0.069025
    139 C48        -3.5460    3.2540    2.6750 c3        1 MOL     -0.251091
    140 C49        -4.4450    2.0380    2.4810 c3        1 MOL     -0.053986
    141 H60        -5.1050    4.3430    0.7730 h1        1 MOL      0.061222
    142 H61        -2.3410    3.0070    0.9610 hc        1 MOL      0.025882
    143 H62        -2.8760    4.7330    1.2250 hc        1 MOL      0.025882
    144 H63        -2.7290    2.8130    3.2570 hc        1 MOL      0.086169
    145 H64        -4.0700    4.0270    3.2340 hc        1 MOL      0.086169
    146 H65        -3.7780    1.1740    2.4960 h1        1 MOL      0.087798
    147 H66        -5.2420    1.9640    3.2160 h1        1 MOL      0.087798
    148 N13        -3.9290    2.4000   -1.5370 n         1 MOL      0.113270
    149 C50        -3.6890    2.1470   -3.0010 c3        1 MOL     -0.478056
    150 C51        -4.9600    2.2750   -3.8010 c         1 MOL      0.747730
    151 O21        -4.9250    2.6830   -4.9310 o         1 MOL     -0.589966
    152 C52        -2.9950    0.8310   -3.2700 c3        1 MOL      0.140228
    153 C53        -1.8070    0.5680   -2.3430 c3        1 MOL     -0.196761
    154 C54        -2.0540    0.0480   -0.8650 c         1 MOL      0.363341
    155 O22        -1.0440   -0.2650   -0.1740 o         1 MOL     -0.590711
    156 O23        -3.1920    0.0320   -0.3750 o         1 MOL     -0.590711
    157 H67        -3.8620    1.5490   -0.9850 hn        1 MOL      0.278605
    158 H68        -3.0840    2.9820   -3.3340 h1        1 MOL      0.161463
    159 H69        -2.5970    0.7330   -4.2840 hc        1 MOL      0.014513
    160 H70        -3.7860    0.0890   -3.1530 hc        1 MOL      0.014513
    161 H71        -1.1880    1.4610   -2.2570 hc        1 MOL      0.074877
    162 H72        -1.1280   -0.1290   -2.8410 hc        1 MOL      0.074877
    163 N14        -6.1590    1.8810   -3.2630 n         1 MOL     -0.408461
    164 C55        -7.5200    2.3070   -3.7470 c3        1 MOL     -0.205242
    165 H73        -7.8360    3.1970   -3.2040 h1        1 MOL      0.099974
    166 H74        -7.4740    2.5280   -4.8130 h1        1 MOL      0.099974
    167 H75        -8.2360    1.5030   -3.5730 h1        1 MOL      0.099974
    168 H76        -6.1760    1.6210   -2.2870 hn        1 MOL      0.213102
    169 Ca1         1.0610   -0.6780    1.1510 Ca        1 MOL      1.713530
    170 O24         1.2190    1.8000   -0.1020 oh        1 MOL     -0.863562
    171 H77         0.9500    1.5820   -0.9930 ho        1 MOL      0.415055
    172 H78         1.7860    2.5710   -0.2080 ho        1 MOL      0.415055
    173 O25         2.0730   -1.2300   -1.3330 oh        1 MOL     -0.863562
    174 H79         1.5520   -1.9310   -1.7070 ho        1 MOL      0.415055
    175 H80         2.9210   -1.3040   -1.7800 ho        1 MOL      0.415055
    176 O26        -0.6070    1.4230    2.0890 oh        1 MOL     -0.863562
    177 H81        -1.1860    1.3370    1.3300 ho        1 MOL      0.415055
    178 H82        -0.2440    2.3080    2.0140 ho        1 MOL      0.415055
    179 O27         2.5410   -2.5580    2.3670 oh        1 MOL     -0.863562
    180 H83         2.4600   -2.6940    3.3130 ho        1 MOL      0.415055
    181 H84         3.1540   -3.2210    2.0720 ho        1 MOL      0.415055
@<TRIPOS>BOND
     1    1    2 1   
     2    1    4 1   
     3    1    5 1   
     4    1    6 1   
     5    2    3 2   
     6    2    7 1   
     7    7    8 1   
     8    7   15 1   
     9    8    9 1   
    10    8   11 1   
    11    8   16 1   
    12    9   10 2   
    13    9   19 1   
    14   11   12 1   
    15   11   17 1   
    16   11   18 1   
    17   12   13 1   
    18   12   14 1   
    19   19   20 1   
    20   19   24 1   
    21   20   21 1   
    22   20   23 1   
    23   20   25 1   
    24   21   22 2   
    25   21   29 1   
    26   23   26 1   
    27   23   27 1   
    28   23   28 1   
    29   29   30 1   
    30   29   37 1   
    31   30   31 1   
    32   30   33 1   
    33   30   38 1   
    34   31   32 2   
    35   31   41 1   
    36   33   34 1   
    37   33   39 1   
    38   33   40 1   
    39   34   35 1   
    40   34   36 1   
    41   41   42 1   
    42   41   45 1   
    43   42   43 1   
    44   42   46 1   
    45   42   47 1   
    46   43   44 2   
    47   43   48 1   
    48   48   49 1   
    49   48   56 1   
    50   49   50 1   
    51   49   52 1   
    52   49   57 1   
    53   50   51 2   
    54   50   62 1   
    55   52   53 1   
    56   52   58 1   
    57   52   59 1   
    58   53   54 1   
    59   53   55 2   
    60   54   60 1   
    61   54   61 1   
    62   62   63 1   
    63   62   66 1   
    64   63   64 1   
    65   63   67 1   
    66   63   68 1   
    67   64   65 2   
    68   64   69 1   
    69   69   70 1   
    70   69   76 1   
    71   70   71 1   
    72   70   73 1   
    73   70   77 1   
    74   71   72 2   
    75   71   83 1   
    76   73   74 1   
    77   73   75 1   
    78   73   78 1   
    79   74   80 1   
    80   74   81 1   
    81   74   82 1   
    82   75   79 1   
    83   83   84 1   
    84   83   91 1   
    85   84   85 1   
    86   84   87 1   
    87   84   92 1   
    88   85   86 2   
    89   85  102 1   
    90   87   88 1   
    91   87   89 1   
    92   87   93 1   
    93   88   90 1   
    94   88   94 1   
    95   88   95 1   
    96   89   96 1   
    97   89   97 1   
    98   89   98 1   
    99   90   99 1   
   100   90  100 1   
   101   90  101 1   
   102  102  103 1   
   103  102  110 1   
   104  103  104 1   
   105  103  106 1   
   106  103  111 1   
   107  104  105 2   
   108  104  114 1   
   109  106  107 1   
   110  106  112 1   
   111  106  113 1   
   112  107  108 1   
   113  107  109 1   
   114  114  115 1   
   115  114  125 1   
   116  115  116 1   
   117  115  118 1   
   118  115  126 1   
   119  116  117 2   
   120  116  134 1   
   121  118  119 1   
   122  118  127 1   
   123  118  128 1   
   124  119  120 ar  
   125  119  121 ar  
   126  120  122 ar  
   127  120  129 1   
   128  121  123 ar  
   129  121  130 1   
   130  122  124 ar  
   131  122  131 1   
   132  123  124 ar  
   133  123  132 1   
   134  124  133 1   
   135  134  135 1   
   136  134  140 1   
   137  135  136 1   
   138  135  138 1   
   139  135  141 1   
   140  136  137 2   
   141  136  148 1   
   142  138  139 1   
   143  138  142 1   
   144  138  143 1   
   145  139  140 1   
   146  139  144 1   
   147  139  145 1   
   148  140  146 1   
   149  140  147 1   
   150  148  149 1   
   151  148  157 1   
   152  149  150 1   
   153  149  152 1   
   154  149  158 1   
   155  150  151 2   
   156  150  163 1   
   157  152  153 1   
   158  152  159 1   
   159  152  160 1   
   160  153  154 1   
   161  153  161 1   
   162  153  162 1   
   163  154  155 1   
   164  154  156 1   
   165  163  164 1   
   166  163  168 1   
   167  164  165 1   
   168  164  166 1   
   169  164  167 1   
   170  170  171 1   
   171  170  172 1   
   172  173  174 1   
   173  173  175 1   
   174  176  177 1   
   175  176  178 1   
   176  179  180 1   
   177  179  181 1   
@<TRIPOS>SUBSTRUCTURE
     1 MOL         1 TEMP              0 ****  ****    0 ROOT
