@<TRIPOS>MOLECULE
MOL
  178   175     1     0     0
SMALL
resp


@<TRIPOS>ATOM
      1 C1          4.4020   -2.4770    2.5970 c3        1 MOL     -0.293661
      2 C2          5.7280   -1.6830    2.2720 c         1 MOL      0.676732
      3 O1          5.6700   -0.4790    2.0120 o         1 MOL     -0.584019
      4 H1          4.6510   -3.5030    2.8660 hc        1 MOL      0.069856
      5 H2          3.8870   -1.9990    3.4300 hc        1 MOL      0.069856
      6 H3          3.7540   -2.4780    1.7210 hc        1 MOL      0.069856
      7 N1          6.8590   -2.3190    2.3440 n         1 MOL     -0.549812
      8 C3          8.1600   -1.7050    2.4000 c3        1 MOL      0.190617
      9 C4          8.7760   -1.4030    0.9840 c         1 MOL      0.514681
     10 O2          9.2800   -2.2910    0.3070 o         1 MOL     -0.517672
     11 C5          9.0870   -2.6480    3.1360 c3        1 MOL     -0.111118
     12 C6         10.3660   -2.0440    3.5950 c         1 MOL      0.719820
     13 O3         11.1140   -2.8070    4.2450 o         1 MOL     -0.741857
     14 O4         10.7090   -0.9010    3.1980 o         1 MOL     -0.741857
     15 H4          6.8590   -3.2760    2.6720 hn        1 MOL      0.290952
     16 H5          8.1230   -0.8080    3.0180 h1        1 MOL      0.000936
     17 H6          9.2330   -3.5080    2.4790 hc        1 MOL     -0.009474
     18 H7          8.5720   -3.0020    4.0360 hc        1 MOL     -0.009474
     19 N2          8.6840   -0.0970    0.6270 n         1 MOL     -0.329708
     20 C7          8.8350    0.3650   -0.7510 c3        1 MOL      0.162084
     21 C8          7.6120    0.1480   -1.5930 c         1 MOL      0.521107
     22 O5          7.6470    0.0890   -2.8410 o         1 MOL     -0.593297
     23 C9          9.1490    1.9170   -0.7360 c3        1 MOL     -0.286499
     24 H8          8.4340    0.5940    1.3090 hn        1 MOL      0.223109
     25 H9          9.6370   -0.2690   -1.1250 h1        1 MOL      0.059503
     26 H10         8.2580    2.5350   -0.6890 hc        1 MOL      0.073883
     27 H11         9.9770    2.0110   -0.0310 hc        1 MOL      0.073883
     28 H12         9.5040    2.1100   -1.7520 hc        1 MOL      0.073883
     29 N3          6.4620   -0.1330   -0.9690 n         1 MOL     -0.506319
     30 C10         5.1530   -0.6510   -1.5510 c3        1 MOL      0.310244
     31 C11         4.6110   -0.0210   -2.8660 c         1 MOL      0.361910
     32 O6          4.1030   -0.6480   -3.7830 o         1 MOL     -0.465962
     33 C12         5.1950   -2.1530   -1.4840 c3        1 MOL     -0.015439
     34 C13         3.8220   -2.9150   -1.5010 c         1 MOL      0.610469
     35 O7          3.6250   -4.0040   -2.0780 o         1 MOL     -0.722873
     36 O8          2.9360   -2.4320   -0.7530 o         1 MOL     -0.722873
     37 H13         6.5000   -0.2290    0.0300 hn        1 MOL      0.196094
     38 H14         4.4320   -0.3760   -0.7810 h1        1 MOL     -0.005318
     39 H15         5.6810   -2.3780   -0.5330 hc        1 MOL      0.001183
     40 H16         5.9190   -2.5420   -2.2020 hc        1 MOL      0.001183
     41 N4          4.9880    1.2830   -3.0060 n         1 MOL     -0.131524
     42 C14         5.0980    2.0450   -4.2680 c3        1 MOL     -0.134674
     43 C15         3.9840    3.1390   -4.4070 c         1 MOL      0.439298
     44 O9          3.9930    3.8900   -5.4230 o         1 MOL     -0.555220
     45 H17         5.4840    1.7390   -2.2470 hn        1 MOL      0.201941
     46 H18         5.1040    1.3120   -5.0800 h1        1 MOL      0.097986
     47 H19         6.0250    2.6330   -4.2730 h1        1 MOL      0.097986
     48 N5          3.2260    3.3640   -3.3340 n         1 MOL     -0.286315
     49 C16         2.1800    4.2820   -3.3040 c3        1 MOL      0.305503
     50 C17         2.1330    4.8030   -1.8760 c         1 MOL      0.407470
     51 O10         2.5000    4.0660   -0.9740 o         1 MOL     -0.436496
     52 C18         0.8720    3.6390   -3.7390 c3        1 MOL     -0.241098
     53 C19        -0.3910    4.4380   -3.7140 c         1 MOL      0.685891
     54 N6         -1.5130    3.8090   -3.7790 n         1 MOL     -0.804602
     55 O11        -0.3820    5.6480   -3.7910 o         1 MOL     -0.588909
     56 H20         3.3470    2.7970   -2.4980 hn        1 MOL      0.111700
     57 H21         2.3470    5.0910   -4.0180 h1        1 MOL     -0.010225
     58 H22         0.6870    2.7170   -3.1700 hc        1 MOL      0.076003
     59 H23         0.9460    3.3120   -4.7840 hc        1 MOL      0.076003
     60 H24        -1.4480    2.8400   -4.0660 hn        1 MOL      0.365280
     61 H25        -2.3730    4.3350   -3.8150 hn        1 MOL      0.365280
     62 N7          1.7180    6.0420   -1.6330 n         1 MOL     -0.532629
     63 C20         1.3460    6.4130   -0.2000 c3        1 MOL      0.121966
     64 C21        -0.0820    5.9620    0.1630 c         1 MOL      0.423258
     65 O12        -0.7750    5.1500   -0.4490 o         1 MOL     -0.405580
     66 H26         1.4900    6.7100   -2.3590 hn        1 MOL      0.317906
     67 H27         1.3580    7.4780    0.0050 h1        1 MOL      0.046184
     68 H28         2.1380    6.0260    0.4340 h1        1 MOL      0.046184
     69 N8         -0.6000    6.4430    1.2810 n         1 MOL     -0.285325
     70 C22        -2.0490    6.3950    1.6330 c3        1 MOL     -0.315449
     71 C23        -2.5140    5.1020    2.2460 c         1 MOL      0.600504
     72 O13        -3.6670    4.7950    2.2000 o         1 MOL     -0.575785
     73 C24        -2.3830    7.5350    2.6680 c3        1 MOL      0.579553
     74 C25        -1.5480    7.5730    3.9490 c3        1 MOL     -0.511455
     75 O14        -1.9270    8.6690    1.9840 oh        1 MOL     -0.687735
     76 H29        -0.0040    7.0320    1.8500 hn        1 MOL      0.183463
     77 H30        -2.6670    6.5020    0.7460 h1        1 MOL      0.167714
     78 H31        -3.4390    7.5090    2.9660 h1        1 MOL      0.023153
     79 H32        -0.9690    8.6580    2.0010 ho        1 MOL      0.406647
     80 H33        -1.7090    8.5640    4.3800 hc        1 MOL      0.122971
     81 H34        -2.0100    6.8180    4.5910 hc        1 MOL      0.122971
     82 H35        -0.4780    7.3620    3.8900 hc        1 MOL      0.122971
     83 N9         -1.5540    4.2900    2.7710 n         1 MOL     -0.453404
     84 C26        -1.7980    2.9330    3.1460 c3        1 MOL      0.246494
     85 C27        -1.2410    2.0100    2.0470 c         1 MOL      0.527371
     86 O15        -0.1210    2.1900    1.5850 o         1 MOL     -0.511518
     87 C28        -1.1550    2.6850    4.4910 c3        1 MOL      0.076725
     88 C29        -1.7350    3.3740    5.7130 c3        1 MOL     -0.036604
     89 C30        -0.9580    1.2060    4.8320 c3        1 MOL     -0.116858
     90 C31        -3.1700    3.0690    6.0210 c3        1 MOL     -0.073331
     91 H36        -0.6300    4.6570    2.9280 hn        1 MOL      0.220370
     92 H37        -2.8810    2.8100    3.1770 h1        1 MOL     -0.018160
     93 H38        -0.1520    3.1160    4.3860 hc        1 MOL     -0.002286
     94 H39        -1.7200    4.4590    5.5980 hc        1 MOL      0.004993
     95 H40        -1.1370    3.0740    6.5790 hc        1 MOL      0.004993
     96 H41        -0.6590    0.9710    5.8550 hc        1 MOL      0.032390
     97 H42        -1.9520    0.7670    4.7930 hc        1 MOL      0.032390
     98 H43        -0.2290    0.7350    4.1600 hc        1 MOL      0.032390
     99 H44        -3.8660    3.8100    5.6290 hc        1 MOL      0.015494
    100 H45        -3.5130    2.0840    5.7080 hc        1 MOL      0.015494
    101 H46        -3.3040    3.2200    7.0940 hc        1 MOL      0.015494
    102 N10        -2.1000    1.0150    1.7340 n         1 MOL     -0.598919
    103 C32        -1.7890   -0.0740    0.7820 c3        1 MOL      0.364223
    104 C33        -3.0770   -0.4220    0.0440 c         1 MOL      0.463323
    105 O16        -3.3360   -1.5950   -0.2270 o         1 MOL     -0.461572
    106 C34        -1.0570   -1.2750    1.4480 c3        1 MOL     -0.430611
    107 C35        -0.4820   -2.1250    0.3030 c         1 MOL      0.769277
    108 O17        -0.2530   -1.7920   -0.8790 o         1 MOL     -0.751702
    109 O18        -0.1560   -3.3060    0.6920 o         1 MOL     -0.751702
    110 H47        -2.9500    1.0240    2.2710 hn        1 MOL      0.304589
    111 H48        -1.1870    0.4280    0.0330 h1        1 MOL      0.044751
    112 H49        -1.6530   -1.8570    2.1480 hc        1 MOL      0.127121
    113 H50        -0.2210   -0.8220    1.9740 hc        1 MOL      0.127121
    114 N11        -3.9330    0.5380   -0.2830 n         1 MOL     -0.585231
    115 C36        -5.2980    0.3870   -0.8710 c3        1 MOL      0.415570
    116 C37        -6.0410   -0.7700   -0.1380 c         1 MOL      0.130701
    117 O19        -6.1780   -0.7860    1.0870 o         1 MOL     -0.502308
    118 C38        -6.1940    1.6400   -0.6770 c3        1 MOL     -0.299206
    119 C39        -7.4980    1.4990   -1.3370 ca        1 MOL      0.122458
    120 C40        -7.7310    1.8590   -2.6690 ca        1 MOL     -0.175314
    121 C41        -8.5520    0.8850   -0.6600 ca        1 MOL     -0.175314
    122 C42        -9.0140    1.5970   -3.2850 ca        1 MOL     -0.118663
    123 C43        -9.8570    0.6550   -1.1980 ca        1 MOL     -0.118663
    124 C44       -10.0290    1.0030   -2.5430 ca        1 MOL     -0.093250
    125 H51        -3.5470    1.4510   -0.1380 hn        1 MOL      0.282588
    126 H52        -5.1950    0.1900   -1.9320 h1        1 MOL     -0.021178
    127 H53        -5.6950    2.4840   -1.1530 hc        1 MOL      0.120338
    128 H54        -6.2940    1.8890    0.3830 hc        1 MOL      0.120338
    129 H55        -6.9550    2.3370   -3.2460 ha        1 MOL      0.117412
    130 H56        -8.3310    0.5570    0.3390 ha        1 MOL      0.117412
    131 H57        -9.2060    1.9300   -4.2930 ha        1 MOL      0.112818
    132 H58       -10.5430    0.0340   -0.6360 ha        1 MOL      0.112818
    133 H59       -11.0260    0.9000   -2.9450 ha        1 MOL      0.089032
    134 N12        -6.6680   -1.7240   -0.8750 n         1 MOL      0.187443
    135 C45        -7.6020   -2.7600   -0.2890 c3        1 MOL      0.053423
    136 C46        -6.8330   -3.8510    0.5470 c         1 MOL      0.161063
    137 O20        -7.4600   -4.5920    1.3440 o         1 MOL     -0.487650
    138 C47        -8.2670   -3.3770   -1.5380 c3        1 MOL     -0.168061
    139 C48        -7.2280   -3.2340   -2.6880 c3        1 MOL     -0.039255
    140 C49        -6.6350   -1.8230   -2.3550 c3        1 MOL     -0.060382
    141 H60        -8.3580   -2.2380    0.2840 h1        1 MOL      0.086270
    142 H61        -8.4820   -4.4150   -1.2930 hc        1 MOL      0.066068
    143 H62        -9.1690   -2.7840   -1.7070 hc        1 MOL      0.066068
    144 H63        -6.3700   -3.9070   -2.5950 hc        1 MOL      0.038568
    145 H64        -7.6780   -3.2650   -3.6800 hc        1 MOL      0.038568
    146 H65        -5.6240   -1.8500   -2.7560 h1        1 MOL      0.027394
    147 H66        -7.2150   -1.0130   -2.7840 h1        1 MOL      0.027394
    148 N13        -5.4850   -4.0870    0.4200 n         1 MOL      0.053578
    149 C50        -4.6700   -5.0570    1.1890 c3        1 MOL     -0.464814
    150 C51        -4.5870   -4.8050    2.6710 c         1 MOL      0.562586
    151 O21        -4.3100   -5.7790    3.4060 o         1 MOL     -0.557575
    152 C52        -3.2790   -5.0630    0.5560 c3        1 MOL      0.287263
    153 C53        -3.2480   -5.7510   -0.8670 c3        1 MOL     -0.269100
    154 C54        -1.7960   -5.4610   -1.3330 c         1 MOL      0.695049
    155 O22        -1.5750   -4.7210   -2.3160 o         1 MOL     -0.727766
    156 O23        -0.8190   -5.9770   -0.7450 o         1 MOL     -0.727766
    157 H67        -4.9540   -3.5300   -0.2300 hn        1 MOL      0.163753
    158 H68        -5.2020   -5.9990    1.0340 h1        1 MOL      0.181826
    159 H69        -2.4950   -5.6120    1.0850 hc        1 MOL     -0.003135
    160 H70        -2.9590   -4.0270    0.4470 hc        1 MOL     -0.003135
    161 H71        -3.9640   -5.3490   -1.5880 hc        1 MOL      0.037698
    162 H72        -3.3890   -6.8250   -0.7080 hc        1 MOL      0.037698
    163 N14        -4.7880   -3.5910    3.1480 n         1 MOL     -0.208891
    164 C55        -4.5920   -3.1640    4.5290 c3        1 MOL     -0.290532
    165 H73        -5.0920   -2.2090    4.6880 h1        1 MOL      0.109828
    166 H74        -5.0120   -3.9100    5.2040 h1        1 MOL      0.109828
    167 H75        -3.5270   -3.0520    4.7290 h1        1 MOL      0.109828
    168 H76        -4.9030   -2.8360    2.4870 hn        1 MOL      0.246204
    169 Ca1         1.1150   -4.2010   -1.2990 Ca        1 MOL      1.761149
    170 O24         1.3790   -6.4810   -2.4580 oh        1 MOL     -0.842702
    171 H77         0.6220   -7.0500   -2.6140 ho        1 MOL      0.413258
    172 H78         2.1250   -7.0810   -2.4520 ho        1 MOL      0.413258
    173 O25         0.6560   -2.7090   -3.5030 oh        1 MOL     -0.842702
    174 H79        -0.2820   -2.7620   -3.6900 ho        1 MOL      0.413258
    175 H80         0.8060   -1.7940   -3.2670 ho        1 MOL      0.413258
    176 O26         2.2600   -5.7210    0.5820 oh        1 MOL     -0.842702
    177 H81         2.0620   -5.7810    1.5180 ho        1 MOL      0.413258
    178 H82         3.1820   -5.9520    0.5150 ho        1 MOL      0.413258
@<TRIPOS>BOND
     1    1    2 1   
     2    1    4 1   
     3    1    5 1   
     4    1    6 1   
     5    2    3 2   
     6    2    7 1   
     7    7    8 1   
     8    7   15 1   
     9    8    9 1   
    10    8   11 1   
    11    8   16 1   
    12    9   10 2   
    13    9   19 1   
    14   11   12 1   
    15   11   17 1   
    16   11   18 1   
    17   12   13 1   
    18   12   14 1   
    19   19   20 1   
    20   19   24 1   
    21   20   21 1   
    22   20   23 1   
    23   20   25 1   
    24   21   22 2   
    25   21   29 1   
    26   23   26 1   
    27   23   27 1   
    28   23   28 1   
    29   29   30 1   
    30   29   37 1   
    31   30   31 1   
    32   30   33 1   
    33   30   38 1   
    34   31   32 2   
    35   31   41 1   
    36   33   34 1   
    37   33   39 1   
    38   33   40 1   
    39   34   35 1   
    40   34   36 1   
    41   41   42 1   
    42   41   45 1   
    43   42   43 1   
    44   42   46 1   
    45   42   47 1   
    46   43   44 2   
    47   43   48 1   
    48   48   49 1   
    49   48   56 1   
    50   49   50 1   
    51   49   52 1   
    52   49   57 1   
    53   50   51 2   
    54   50   62 1   
    55   52   53 1   
    56   52   58 1   
    57   52   59 1   
    58   53   54 1   
    59   53   55 2   
    60   54   60 1   
    61   54   61 1   
    62   62   63 1   
    63   62   66 1   
    64   63   64 1   
    65   63   67 1   
    66   63   68 1   
    67   64   65 2   
    68   64   69 1   
    69   69   70 1   
    70   69   76 1   
    71   70   71 1   
    72   70   73 1   
    73   70   77 1   
    74   71   72 2   
    75   71   83 1   
    76   73   74 1   
    77   73   75 1   
    78   73   78 1   
    79   74   80 1   
    80   74   81 1   
    81   74   82 1   
    82   75   79 1   
    83   83   84 1   
    84   83   91 1   
    85   84   85 1   
    86   84   87 1   
    87   84   92 1   
    88   85   86 2   
    89   85  102 1   
    90   87   88 1   
    91   87   89 1   
    92   87   93 1   
    93   88   90 1   
    94   88   94 1   
    95   88   95 1   
    96   89   96 1   
    97   89   97 1   
    98   89   98 1   
    99   90   99 1   
   100   90  100 1   
   101   90  101 1   
   102  102  103 1   
   103  102  110 1   
   104  103  104 1   
   105  103  106 1   
   106  103  111 1   
   107  104  105 2   
   108  104  114 1   
   109  106  107 1   
   110  106  112 1   
   111  106  113 1   
   112  107  108 1   
   113  107  109 1   
   114  114  115 1   
   115  114  125 1   
   116  115  116 1   
   117  115  118 1   
   118  115  126 1   
   119  116  117 2   
   120  116  134 1   
   121  118  119 1   
   122  118  127 1   
   123  118  128 1   
   124  119  120 ar  
   125  119  121 ar  
   126  120  122 ar  
   127  120  129 1   
   128  121  123 ar  
   129  121  130 1   
   130  122  124 ar  
   131  122  131 1   
   132  123  124 ar  
   133  123  132 1   
   134  124  133 1   
   135  134  135 1   
   136  134  140 1   
   137  135  136 1   
   138  135  138 1   
   139  135  141 1   
   140  136  137 2   
   141  136  148 1   
   142  138  139 1   
   143  138  142 1   
   144  138  143 1   
   145  139  140 1   
   146  139  144 1   
   147  139  145 1   
   148  140  146 1   
   149  140  147 1   
   150  148  149 1   
   151  148  157 1   
   152  149  150 1   
   153  149  152 1   
   154  149  158 1   
   155  150  151 2   
   156  150  163 1   
   157  152  153 1   
   158  152  159 1   
   159  152  160 1   
   160  153  154 1   
   161  153  161 1   
   162  153  162 1   
   163  154  155 1   
   164  154  156 1   
   165  163  164 1   
   166  163  168 1   
   167  164  165 1   
   168  164  166 1   
   169  164  167 1   
   170  170  171 1   
   171  170  172 1   
   172  173  174 1   
   173  173  175 1   
   174  176  177 1   
   175  176  178 1   
@<TRIPOS>SUBSTRUCTURE
     1 MOL         1 TEMP              0 ****  ****    0 ROOT
