@<TRIPOS>MOLECULE
MOL
  178   175     1     0     0
SMALL
resp


@<TRIPOS>ATOM
      1 C1          1.2760    6.6920   -2.5930 c3        1 MOL     -0.420393
      2 C2          2.5960    6.1660   -2.0450 c         1 MOL      0.698667
      3 O1          2.9410    6.5600   -0.9420 o         1 MOL     -0.585323
      4 H1          0.4500    6.1550   -2.1260 hc        1 MOL      0.103544
      5 H2          1.1880    7.7550   -2.3720 hc        1 MOL      0.103544
      6 H3          1.2430    6.5400   -3.6710 hc        1 MOL      0.103544
      7 N1          3.3310    5.3070   -2.7740 n         1 MOL     -0.555247
      8 C3          4.4980    4.6590   -2.3120 c3        1 MOL      0.158507
      9 C4          4.2830    3.8810   -0.9690 c         1 MOL      0.528931
     10 O2          3.6390    2.8390   -1.0300 o         1 MOL     -0.472607
     11 C5          5.0330    3.7220   -3.2680 c3        1 MOL     -0.296603
     12 C6          6.3770    3.0980   -3.0050 c         1 MOL      0.750220
     13 O3          7.2640    3.7310   -2.3780 o         1 MOL     -0.743194
     14 O4          6.5760    1.9470   -3.3500 o         1 MOL     -0.743194
     15 H4          2.9380    5.0220   -3.6550 hn        1 MOL      0.307297
     16 H5          5.2230    5.4350   -2.0900 h1        1 MOL      0.013806
     17 H6          4.9330    4.0360   -4.3020 hc        1 MOL      0.046559
     18 H7          4.3380    2.8810   -3.2820 hc        1 MOL      0.046559
     19 N2          4.8860    4.4130    0.1070 n         1 MOL     -0.449966
     20 C7          4.8930    3.8680    1.4850 c3        1 MOL      0.483204
     21 C8          3.4900    3.8100    2.1280 c         1 MOL      0.308247
     22 O5          2.5360    4.4870    1.8110 o         1 MOL     -0.502777
     23 C9          5.8240    4.6720    2.4540 c3        1 MOL     -0.336427
     24 H8          5.5670    5.1660    0.0750 hn        1 MOL      0.270903
     25 H9          5.2910    2.8510    1.4000 h1        1 MOL     -0.083209
     26 H10         5.2670    5.5460    2.7730 hc        1 MOL      0.083201
     27 H11         6.0910    4.1100    3.3460 hc        1 MOL      0.083201
     28 H12         6.7480    4.9930    1.9650 hc        1 MOL      0.083201
     29 N3          3.1820    2.9150    3.0590 n         1 MOL     -0.264973
     30 C10         4.0200    1.8680    3.5610 c3        1 MOL     -0.022695
     31 C11         4.3390    0.8190    2.4960 c         1 MOL      0.611492
     32 O6          3.4950    0.6540    1.6040 o         1 MOL     -0.555324
     33 C12         3.2950    1.2130    4.7480 c3        1 MOL     -0.241419
     34 C13         1.8190    0.7200    4.5030 c         1 MOL      0.668890
     35 O7          1.2370    0.6750    3.3910 o         1 MOL     -0.678278
     36 O8          1.2150    0.2990    5.5380 o         1 MOL     -0.678278
     37 H13         2.2180    2.8380    3.3260 hn        1 MOL      0.232307
     38 H14         4.9690    2.2500    3.9490 h1        1 MOL      0.020058
     39 H15         3.4700    1.9050    5.5750 hc        1 MOL      0.064338
     40 H16         3.8180    0.2770    4.9550 hc        1 MOL      0.064338
     41 N4          5.4360    0.1000    2.6490 n         1 MOL     -0.513346
     42 C14         5.9170   -0.8930    1.7480 c3        1 MOL      0.181542
     43 C15         6.4380   -0.4010    0.3890 c         1 MOL      0.371563
     44 O9          6.4600    0.7720    0.0770 o         1 MOL     -0.401389
     45 H17         6.0620    0.4290    3.3660 hn        1 MOL      0.281178
     46 H18         5.1060   -1.6030    1.5430 h1        1 MOL      0.001210
     47 H19         6.7130   -1.3410    2.3470 h1        1 MOL      0.001210
     48 N5          6.9490   -1.3310   -0.3470 n         1 MOL     -0.363117
     49 C16         7.1220   -2.7270   -0.0030 c3        1 MOL      0.116056
     50 C17         6.2630   -3.5820   -0.9300 c         1 MOL      0.590658
     51 O10         6.2280   -4.8290   -0.7720 o         1 MOL     -0.580492
     52 C18         8.5860   -3.1130   -0.1520 c3        1 MOL     -0.365433
     53 C19         9.5390   -2.3540    0.7360 c         1 MOL      0.718240
     54 N6          9.3100   -2.2030    2.0540 n         1 MOL     -0.820885
     55 O11        10.5430   -1.8360    0.2820 o         1 MOL     -0.536713
     56 H20         7.2490   -1.0650   -1.2780 hn        1 MOL      0.302059
     57 H21         6.7830   -3.0160    0.9860 h1        1 MOL      0.025724
     58 H22         8.9780   -2.8960   -1.1400 hc        1 MOL      0.102727
     59 H23         8.6740   -4.1520    0.1340 hc        1 MOL      0.102727
     60 H24         8.6240   -2.8250    2.4730 hn        1 MOL      0.371444
     61 H25         9.8660   -1.5650    2.6000 hn        1 MOL      0.371444
     62 N7          5.5500   -2.9890   -1.8380 n         1 MOL     -0.355644
     63 C20         4.9770   -3.6160   -3.0370 c3        1 MOL     -0.176015
     64 C21         3.4930   -3.7480   -3.0750 c         1 MOL      0.539971
     65 O12         2.8460   -3.9460   -4.1470 o         1 MOL     -0.565054
     66 H26         5.5270   -1.9850   -1.8500 hn        1 MOL      0.280092
     67 H27         5.4290   -4.6020   -3.1370 h1        1 MOL      0.127727
     68 H28         5.3360   -3.0400   -3.9000 h1        1 MOL      0.127727
     69 N8          2.7850   -3.7440   -1.9240 n         1 MOL     -0.244343
     70 C22         1.4820   -4.2820   -1.7500 c3        1 MOL     -0.167546
     71 C23         0.3990   -3.2350   -1.5950 c         1 MOL      0.640221
     72 O13         0.6190   -2.2150   -0.9200 o         1 MOL     -0.553076
     73 C24         1.4740   -5.2730   -0.5750 c3        1 MOL      0.467259
     74 C25         2.1430   -6.6030   -0.8890 c3        1 MOL     -0.281145
     75 O14         2.0570   -4.7190    0.5910 oh        1 MOL     -0.653166
     76 H29         3.2540   -3.6120   -1.0360 hn        1 MOL      0.189757
     77 H30         1.2480   -4.7750   -2.6910 h1        1 MOL      0.105743
     78 H31         0.4310   -5.5090   -0.3400 h1        1 MOL      0.004845
     79 H32         1.6740   -5.1580    1.3590 ho        1 MOL      0.426222
     80 H33         3.1240   -6.4110   -1.3110 hc        1 MOL      0.061113
     81 H34         2.1880   -7.2930   -0.0480 hc        1 MOL      0.061113
     82 H35         1.5570   -7.0700   -1.6810 hc        1 MOL      0.061113
     83 N9         -0.8250   -3.6260   -2.0810 n         1 MOL     -0.513841
     84 C26        -2.0920   -3.0580   -1.6900 c3        1 MOL     -0.055518
     85 C27        -2.4200   -3.5550   -0.2600 c         1 MOL      0.314231
     86 O15        -2.3780   -4.7840    0.0840 o         1 MOL     -0.545486
     87 C28        -3.2150   -3.5450   -2.6960 c3        1 MOL      0.036767
     88 C29        -4.4560   -2.6260   -2.3970 c3        1 MOL      0.159801
     89 C30        -2.7070   -3.1630   -4.1000 c3        1 MOL     -0.244664
     90 C31        -5.7100   -2.8780   -3.3190 c3        1 MOL     -0.389030
     91 H36        -0.8190   -4.5290   -2.5260 hn        1 MOL      0.293650
     92 H37        -1.9870   -1.9790   -1.8020 h1        1 MOL      0.166633
     93 H38        -3.5460   -4.5810   -2.6660 hc        1 MOL      0.045197
     94 H39        -4.2390   -1.5640   -2.4820 hc        1 MOL     -0.025901
     95 H40        -4.7810   -2.6660   -1.3550 hc        1 MOL     -0.025901
     96 H41        -3.5160   -3.1950   -4.8240 hc        1 MOL      0.062831
     97 H42        -2.3450   -2.1430   -4.2390 hc        1 MOL      0.062831
     98 H43        -1.8570   -3.7650   -4.4080 hc        1 MOL      0.062831
     99 H44        -6.6560   -2.4600   -2.9550 hc        1 MOL      0.087402
    100 H45        -5.3740   -2.4520   -4.2600 hc        1 MOL      0.087402
    101 H46        -5.7910   -3.9640   -3.4270 hc        1 MOL      0.087402
    102 N10        -2.8780   -2.5830    0.5220 n         1 MOL      0.207159
    103 C32        -3.4240   -2.7900    1.8720 c3        1 MOL     -0.150902
    104 C33        -4.8070   -2.2050    2.0260 c         1 MOL      0.379146
    105 O16        -5.4950   -2.5710    3.0190 o         1 MOL     -0.549286
    106 C34        -2.5340   -2.0920    2.9440 c3        1 MOL     -0.034636
    107 C35        -1.1900   -2.7120    2.9360 c         1 MOL      0.678572
    108 O17        -1.1130   -3.8870    3.4460 o         1 MOL     -0.709336
    109 O18        -0.2300   -2.0340    2.4670 o         1 MOL     -0.709336
    110 H47        -2.7020   -1.6220    0.2480 hn        1 MOL     -0.197350
    111 H48        -3.4650   -3.8460    2.1590 h1        1 MOL      0.136734
    112 H49        -2.8970   -2.2810    3.9560 hc        1 MOL      0.029080
    113 H50        -2.5890   -1.0120    2.8030 hc        1 MOL      0.029080
    114 N11        -5.3250   -1.3150    1.1650 n         1 MOL     -0.352628
    115 C36        -6.6350   -0.7230    1.2430 c3        1 MOL      0.445360
    116 C37        -6.4200    0.7480    0.7360 c         1 MOL      0.097418
    117 O19        -7.1310    1.1580   -0.1800 o         1 MOL     -0.410575
    118 C38        -7.7270   -1.4600    0.4680 c3        1 MOL     -0.185274
    119 C39        -9.2170   -0.9740    0.6500 ca        1 MOL      0.113770
    120 C40        -9.6250   -0.2890    1.8120 ca        1 MOL     -0.167205
    121 C41       -10.1770   -1.4130   -0.2830 ca        1 MOL     -0.167205
    122 C42       -10.9790    0.0460    1.9660 ca        1 MOL     -0.073831
    123 C43       -11.5500   -1.1240   -0.1430 ca        1 MOL     -0.073831
    124 C44       -11.9390   -0.4750    1.0490 ca        1 MOL     -0.204922
    125 H51        -4.7540   -0.7800    0.5240 hn        1 MOL      0.341777
    126 H52        -6.8990   -0.8310    2.2950 h1        1 MOL     -0.017473
    127 H53        -7.6930   -2.5080    0.7700 hc        1 MOL      0.065107
    128 H54        -7.5400   -1.4770   -0.6050 hc        1 MOL      0.065107
    129 H55        -8.9130   -0.0370    2.5810 ha        1 MOL      0.106016
    130 H56        -9.8390   -1.8530   -1.2160 ha        1 MOL      0.106016
    131 H57       -11.3150    0.6610    2.7880 ha        1 MOL      0.100319
    132 H58       -12.2890   -1.4150   -0.8740 ha        1 MOL      0.100319
    133 H59       -12.9490   -0.1370    1.2240 ha        1 MOL      0.109043
    134 N12        -5.5910    1.6250    1.3420 n         1 MOL     -0.012275
    135 C45        -5.6530    3.1170    1.2000 c3        1 MOL     -0.041393
    136 C46        -5.1070    3.6920   -0.0630 c         1 MOL      0.395785
    137 O20        -5.2270    4.9090   -0.3620 o         1 MOL     -0.556144
    138 C47        -4.9980    3.7210    2.5430 c3        1 MOL     -0.067356
    139 C48        -3.9870    2.5800    2.8710 c3        1 MOL     -0.093564
    140 C49        -4.7450    1.3600    2.5240 c3        1 MOL     -0.038475
    141 H60        -6.6780    3.4710    1.1840 h1        1 MOL      0.072788
    142 H61        -4.5190    4.6710    2.3080 hc        1 MOL      0.055710
    143 H62        -5.7380    3.8370    3.3260 hc        1 MOL      0.055710
    144 H63        -3.1610    2.6050    2.1610 hc        1 MOL      0.057054
    145 H64        -3.7160    2.7120    3.9170 hc        1 MOL      0.057054
    146 H65        -4.0110    0.5860    2.3010 h1        1 MOL      0.050737
    147 H66        -5.3700    1.0110    3.3420 h1        1 MOL      0.050737
    148 N13        -4.5220    2.8280   -0.8910 n         1 MOL     -0.147767
    149 C50        -4.0730    3.0250   -2.2580 c3        1 MOL     -0.143122
    150 C51        -5.3470    2.8990   -3.1250 c         1 MOL      0.529336
    151 O21        -5.3230    3.5960   -4.1330 o         1 MOL     -0.580304
    152 C52        -2.9620    2.0800   -2.7470 c3        1 MOL      0.044156
    153 C53        -2.0360    1.6420   -1.5980 c3        1 MOL     -0.192086
    154 C54        -2.5170    0.5420   -0.6380 c         1 MOL      0.767997
    155 O22        -1.6190    0.0010    0.0630 o         1 MOL     -0.682511
    156 O23        -3.6820    0.2020   -0.5760 o         1 MOL     -0.682511
    157 H67        -4.4110    1.8820   -0.5490 hn        1 MOL      0.224564
    158 H68        -3.7250    4.0370   -2.4480 h1        1 MOL      0.108729
    159 H69        -2.4090    2.6060   -3.5200 hc        1 MOL      0.019187
    160 H70        -3.3770    1.1630   -3.1890 hc        1 MOL      0.019187
    161 H71        -1.9870    2.4700   -0.8930 hc        1 MOL      0.052818
    162 H72        -1.0140    1.3580   -1.8600 hc        1 MOL      0.052818
    163 N14        -6.3150    2.0570   -2.7950 n         1 MOL     -0.158473
    164 C55        -7.4920    1.9410   -3.6450 c3        1 MOL     -0.118557
    165 H73        -8.3310    1.5710   -3.0560 h1        1 MOL      0.059262
    166 H74        -7.7430    2.9190   -4.0560 h1        1 MOL      0.059262
    167 H75        -7.2860    1.2460   -4.4600 h1        1 MOL      0.059262
    168 H76        -6.3200    1.7180   -1.8480 hn        1 MOL      0.116720
    169 Ca1         0.8100   -0.1950    0.9850 Ca        1 MOL      1.723497
    170 O24         2.2200    0.5560   -1.1180 oh        1 MOL     -0.889262
    171 H77         2.5850    1.4370   -1.0420 ho        1 MOL      0.419851
    172 H78         2.9230    0.0440   -1.5110 ho        1 MOL      0.419851
    173 O25         2.5400   -2.0510    1.2630 oh        1 MOL     -0.889262
    174 H79         2.8950   -2.1810    2.1510 ho        1 MOL      0.419851
    175 H80         2.3700   -2.9310    0.9480 ho        1 MOL      0.419851
    176 O26         0.9190    2.4450    0.9600 oh        1 MOL     -0.889262
    177 H81         1.7500    2.9150    0.9440 ho        1 MOL      0.419851
    178 H82         0.3090    3.0580    1.3640 ho        1 MOL      0.419851
@<TRIPOS>BOND
     1    1    2 1   
     2    1    4 1   
     3    1    5 1   
     4    1    6 1   
     5    2    3 2   
     6    2    7 1   
     7    7    8 1   
     8    7   15 1   
     9    8    9 1   
    10    8   11 1   
    11    8   16 1   
    12    9   10 2   
    13    9   19 1   
    14   11   12 1   
    15   11   17 1   
    16   11   18 1   
    17   12   13 1   
    18   12   14 1   
    19   19   20 1   
    20   19   24 1   
    21   20   21 1   
    22   20   23 1   
    23   20   25 1   
    24   21   22 2   
    25   21   29 1   
    26   23   26 1   
    27   23   27 1   
    28   23   28 1   
    29   29   30 1   
    30   29   37 1   
    31   30   31 1   
    32   30   33 1   
    33   30   38 1   
    34   31   32 2   
    35   31   41 1   
    36   33   34 1   
    37   33   39 1   
    38   33   40 1   
    39   34   35 1   
    40   34   36 1   
    41   41   42 1   
    42   41   45 1   
    43   42   43 1   
    44   42   46 1   
    45   42   47 1   
    46   43   44 2   
    47   43   48 1   
    48   48   49 1   
    49   48   56 1   
    50   49   50 1   
    51   49   52 1   
    52   49   57 1   
    53   50   51 2   
    54   50   62 1   
    55   52   53 1   
    56   52   58 1   
    57   52   59 1   
    58   53   54 1   
    59   53   55 2   
    60   54   60 1   
    61   54   61 1   
    62   62   63 1   
    63   62   66 1   
    64   63   64 1   
    65   63   67 1   
    66   63   68 1   
    67   64   65 2   
    68   64   69 1   
    69   69   70 1   
    70   69   76 1   
    71   70   71 1   
    72   70   73 1   
    73   70   77 1   
    74   71   72 2   
    75   71   83 1   
    76   73   74 1   
    77   73   75 1   
    78   73   78 1   
    79   74   80 1   
    80   74   81 1   
    81   74   82 1   
    82   75   79 1   
    83   83   84 1   
    84   83   91 1   
    85   84   85 1   
    86   84   87 1   
    87   84   92 1   
    88   85   86 2   
    89   85  102 1   
    90   87   88 1   
    91   87   89 1   
    92   87   93 1   
    93   88   90 1   
    94   88   94 1   
    95   88   95 1   
    96   89   96 1   
    97   89   97 1   
    98   89   98 1   
    99   90   99 1   
   100   90  100 1   
   101   90  101 1   
   102  102  103 1   
   103  102  110 1   
   104  103  104 1   
   105  103  106 1   
   106  103  111 1   
   107  104  105 2   
   108  104  114 1   
   109  106  107 1   
   110  106  112 1   
   111  106  113 1   
   112  107  108 1   
   113  107  109 1   
   114  114  115 1   
   115  114  125 1   
   116  115  116 1   
   117  115  118 1   
   118  115  126 1   
   119  116  117 2   
   120  116  134 1   
   121  118  119 1   
   122  118  127 1   
   123  118  128 1   
   124  119  120 ar  
   125  119  121 ar  
   126  120  122 ar  
   127  120  129 1   
   128  121  123 ar  
   129  121  130 1   
   130  122  124 ar  
   131  122  131 1   
   132  123  124 ar  
   133  123  132 1   
   134  124  133 1   
   135  134  135 1   
   136  134  140 1   
   137  135  136 1   
   138  135  138 1   
   139  135  141 1   
   140  136  137 2   
   141  136  148 1   
   142  138  139 1   
   143  138  142 1   
   144  138  143 1   
   145  139  140 1   
   146  139  144 1   
   147  139  145 1   
   148  140  146 1   
   149  140  147 1   
   150  148  149 1   
   151  148  157 1   
   152  149  150 1   
   153  149  152 1   
   154  149  158 1   
   155  150  151 2   
   156  150  163 1   
   157  152  153 1   
   158  152  159 1   
   159  152  160 1   
   160  153  154 1   
   161  153  161 1   
   162  153  162 1   
   163  154  155 1   
   164  154  156 1   
   165  163  164 1   
   166  163  168 1   
   167  164  165 1   
   168  164  166 1   
   169  164  167 1   
   170  170  171 1   
   171  170  172 1   
   172  173  174 1   
   173  173  175 1   
   174  176  177 1   
   175  176  178 1   
@<TRIPOS>SUBSTRUCTURE
     1 MOL         1 TEMP              0 ****  ****    0 ROOT
